<?xml version="1.0" encoding="UTF-8"?>

<!-- generated on 2026-04-12 21:03:21.023871 by Eclipse SUMO osmwebwizard.py v1_26_0+0000-fa7df22d7f1
<configuration>
    <net-file value="C:\Program Files (x86)\Eclipse\Sumo\2026-04-12-21-02-35\osm.net.xml.gz"/>
    <additional-files value="C:\Program Files (x86)\Eclipse\Sumo\2026-04-12-21-02-35\osm_stops.add.xml,C:\Program Files (x86)\Eclipse\Sumo\2026-04-12-21-02-35\osm_pt.rou.xml"/>
    <output-trip-file value="C:\Program Files (x86)\Eclipse\Sumo\2026-04-12-21-02-35\osm.pedestrian.trips.xml"/>
    <route-file value="C:\Program Files (x86)\Eclipse\Sumo\2026-04-12-21-02-35\osm.pedestrian.rou.xml"/>
    <persontrips value="True"/>
    <persontrip.walk-opposite-factor value="0.8"/>
    <prefix value="ped"/>
    <trip-attributes value="modes=&quot;public&quot;"/>
    <vehicle-class value="pedestrian"/>
    <fringe-factor value="2"/>
    <seed value="46"/>
    <end value="600.0"/>
    <insertion-density value="150.0"/>
    <duarouter-weights.tls-penalty value="20"/>
</configuration>
-->

<!-- generated on 2026-04-12T21:03:17.103623+01:00 by Eclipse SUMO duarouter 1.26.0
<duarouterConfiguration xmlns:xsi="http://www.w3.org/2001/XMLSchema-instance" xsi:noNamespaceSchemaLocation="http://sumo.dlr.de/xsd/duarouterConfiguration.xsd">

    <input>
        <net-file value="C:\Program Files (x86)\Eclipse\Sumo\2026-04-12-21-02-35\osm.net.xml.gz"/>
        <additional-files value="C:\Program Files (x86)\Eclipse\Sumo\2026-04-12-21-02-35\osm_stops.add.xml,C:\Program Files (x86)\Eclipse\Sumo\2026-04-12-21-02-35\osm_pt.rou.xml"/>
        <route-files value="C:\Program Files (x86)\Eclipse\Sumo\2026-04-12-21-02-35\osm.pedestrian.trips.xml"/>
    </input>

    <output>
        <output-file value="C:\Program Files (x86)\Eclipse\Sumo\2026-04-12-21-02-35\osm.pedestrian.rou.xml"/>
        <alternatives-output value="NUL"/>
    </output>

    <processing>
        <weights.tls-penalty value="20"/>
        <persontrip.walk-opposite-factor value="0.8"/>
    </processing>

    <time>
        <begin value="0.0"/>
        <end value="600.0"/>
    </time>

    <report>
        <no-warnings value="true"/>
        <ignore-errors value="true"/>
        <no-step-log value="true"/>
    </report>

</duarouterConfiguration>
-->

<routes xmlns:xsi="http://www.w3.org/2001/XMLSchema-instance" xsi:noNamespaceSchemaLocation="http://sumo.dlr.de/xsd/routes_file.xsd">
    <vType id="ped_pedestrian" vClass="pedestrian"/>
    <person id="ped0" type="ped_pedestrian" depart="0.00">
        <walk edges="1420311622#1 1420311624#1 203589978#4 203589978#3 -203589978#2 -203589978#1 -203589978#0 -114532723#2 -1420311660 -135704151 1188652710#0 1188652710#1 1188652710#2 1188652710#3 1328221420 -1096656623#0 1419952639#2 1419952641#1 -1125937899#1 -1125937899#0 -1214310714 -875074258 694609277#0 1099670074#1 1309272820 1419917383#0 1419917379#13 1420951656#0 1491172370#0 108040331#1 1491172368#0 1421493554#9 1421493554#8 1421493571#1 1421524940#0 1421524937#0 264473535#0 264473950 963960414 264473523#2 264473523#3 975562522 264473519#2 264473519#1 264473519#0 264473534#1 291929986#2"/>
    </person>
    <person id="ped1" type="ped_pedestrian" depart="0.20">
        <walk edges="1057103252 1031131576 1031131575#1 1031131584 1491183947#1 1491183947#0 1491183946#2 1491183946#1 1491183946#0 -694603074#2 1365389583#2 1365389583#1 1365389583#0 38375823#1 38375823#0 1491183954#2 1491183954#1 1491183954#0 1068837568 1491183952 38359865#2 824174715 -824174714 1423673546 38359851#1 1420175881#2 1419952614#5 1419952614#6 1419952621"/>
    </person>
    <person id="ped2" type="ped_pedestrian" depart="0.41">
        <walk edges="1420311585 1420311580 -1004737860 -545148171#1 1004744416#0 1004744417 -38375826 -1004744419 -875071472 -1087007031 -875070295 -875070294 -1004744421 -38393865 -1125937899#1 -1125937899#0 -1214310714 -875074258 694609277#0 1099670074#1 1309272820 1419917383#0 1419917379#13 1420951656#0 1491172370#0 108040331#1 1491172368#0 1421493554#9 1421493554#8 1421493571#1 1421524938#1 1421524939 264473953 266143630#0 266143630#1 266143617 958484858 958484859 1096947450 988510419#0 988510419#1 -253106104#1 949113031"/>
    </person>
    <person id="ped3" type="ped_pedestrian" depart="0.61">
        <walk edges="-1071851919#2 1071851919#1 1419584227#1 1419584239#1 1419584239#0 1419584237#1 1461641456#1 291878855#0 291878855#1 1461641455 291878856#0 1421524933#1 1421524935#1 1421524937#0 1421524940#0 1421493571#1 1421493554#8 1421493567#0 1421493567#1 1270700418#2 1270700418#1 1449631250 1270700418#6 1449631252#1 694603072 694603075#6 694603075#5 694603075#4 1030215635 1030215636 -1030215633 203589954#1 1421078884#0 1421078882#3 170772574#0 170772574#1 170772574#2 1421078879#1 -1365389583#0"/>
    </person>
    <person id="ped4" type="ped_pedestrian" depart="0.81">
        <walk edges="1104152728#2 1104152707#0 1104152707#1 1104152721#4 1104152721#5 1104152721#6 1104152721#7 -203589972#1 203589972#2 -38359845#1 -38359845#0 -1004737861#2 -1004744416#1 -1004744417 -38375826 -1004744419 -875071472 -1087007031 -875070295 -875070294 -1004744421 -38393865 -1125937899#1 -1125937899#0 -1214310714 -875074258 694609277#0 1099670074#1 1309272820 38393992#1 -1461641437 1285983576#1 962156531#1 1420175860#1 1420175861#0 1420175862#2 1420175862#3 1420175862#4 1420175867 1066897499 -254747692#2 254747692#1"/>
    </person>
    <person id="ped5" type="ped_pedestrian" depart="1.02">
        <walk edges="264473535#0 1421524937#0 1421524940#0 1421493571#1 1421493554#8 1421493567#0 1421493567#1 1270700418#2 1270700418#1 1449631250 1270700418#6 1449631252#1 694603072 694603075#6 694603075#5 694603075#4 1030215635 1030215636 -1030215633 203589954#1 1421078884#0 1421078882#3 1421078882#2 1421078882#1 1421078882#0 1421078880#1 -38375823#1"/>
    </person>
    <person id="ped6" type="ped_pedestrian" depart="1.22">
        <walk edges="624105521#2 1366797027#1 1366797027#0 1419969589 1419969583#0 1419969583#1 1419952639#0 1419952639#1 1419952639#2"/>
    </person>
    <person id="ped7" type="ped_pedestrian" depart="1.43">
        <walk edges="960082442 -960082441#1 -960082440 291878855#1 1461641455 291878856#0 1421524933#1 264473952#2 824134760#0"/>
    </person>
    <person id="ped8" type="ped_pedestrian" depart="1.63">
        <walk edges="-1461641444#1 -417309446#1 -417309446#2 -135704149 -170772575 -1004737860 -545148171#1 1004744416#0 1004744417 -38375826 -1004744419 -875071472 -1087007031 -875070295 -875070294 -1004744421 -38393865 -1125937899#1 -1125937899#0 -1214310714 -875074258 694609277#0 1099670074#1 1309272820 38393992#1 1419917368#0 962156531#5"/>
    </person>
    <person id="ped9" type="ped_pedestrian" depart="1.83">
        <walk edges="1419917367#3 1419917368#1 38393992#3 1285983575#2 962156533#1 962156529 -962156530 -962156528#1 -962156528#0 1421493560#1 377857997#1 264473952#0 264473952#2 264473952#3 264473952#5 960082450 960082452 291878855#5 291878855#6 -694771199"/>
    </person>
    <person id="ped10" type="ped_pedestrian" depart="2.04">
        <walk edges="1419906653#6 1419917374#1 -1491172365#3 -1491172365#2 -1491172365#1 1420909167#0 1420909165#1 1420909166#1 1420909166#0 1420175840#2 1420175859#0 1420175860#0 1420175862#0 1285983576#0 1285983574#0 1420175869#0 1421493543#1 1421493551#1 38359868#1 1491183966#0 1491183966#1 -203589962#1 -203589962#0 -1461641460 -1420160204 203589949#4 203589949#5 -1420160206"/>
    </person>
    <person id="ped11" type="ped_pedestrian" depart="2.24">
        <walk edges="1421524923#2 1421524941#0 1421493571#1 1421493554#8 1421493554#9 1491172368#0 108040331#1 1491172370#0 1420951656#0 1419917379#13 1419917383#0 1309272820 1099670074#1 694609277#0 -875074258 1419952638#0 1419952614#9 1419952637#1 1419969582#0 1419969579#3 1419969591#0"/>
    </person>
    <person id="ped12" type="ped_pedestrian" depart="2.44">
        <walk edges="-1491183952 1423673548#0 38359852#0 38359852#1 38359852#2 694603075#3 694603075#4 694603075#5 694603075#6 694603072 1449631252#1 1270700418#6 1449631250 1270700418#1 1270700418#2 1421493567#1 1421493567#0 1421493554#8 1421493571#1 1421524940#0 1421524937#0 1421524935#1 1024017994 -291878856#0 -1461641455 -291878855#1 -291878855#0 -1461641456#1 1419584237#1 1419584239#0 1419584239#1 1419584227#1 1071851919#1"/>
    </person>
    <person id="ped13" type="ped_pedestrian" depart="2.65">
        <walk edges="1419920939#0 1419917361#2 1419917365#0 1419917365#1 1419906653#2 1419917366#1 1419917366#0 1419917360#0 1419906652#1 249079039#1 249079039#0 1461641388 548247853#2 1423662169#0 824174716 -1423673546 824174714 266143653 38359865#0 1423673547#1 38359852#1 38359852#2 694603075#3 -1030215635 1421493570#1 1449631255"/>
    </person>
    <person id="ped14" type="ped_pedestrian" depart="2.85">
        <walk edges="1093375246#2 1188652710#1 1188652710#0 441713196 1420311660 -114532723#2 -203589978#0 -203589978#1"/>
    </person>
    <person id="ped15" type="ped_pedestrian" depart="3.05">
        <walk edges="1243305032#1 1421078861#0 1421078843#1 1421078845#1 1421078847#1 1421078846 307025078 1421078840#0 1421078883 -1491183954#0 203589954#2 1421078884#0 1421078882#3 170772574#0 170772574#1 170772574#2 1421078879#1 -1365389583#1"/>
    </person>
    <person id="ped16" type="ped_pedestrian" depart="3.26">
        <walk edges="115611084#1 1421493548#1 962156528#1 962156530 962156529 962156533#1 1285983575#2 1285983576#0 1420175862#0 1420175860#0 1420175859#0 1420175840#2 1420909166#0 1420909166#1 1420909165#1 1420909167#0 1491172365#1 1491172365#2 1491172365#3 1419906662 -377858000#3 -377858000#2 377858000#1"/>
    </person>
    <person id="ped17" type="ped_pedestrian" depart="3.46">
        <walk edges="-944570455#2 624105519#3 1454361617#3 1454361617#2 1454361617#1 1454361617#0 1454361619 624105517#4 624105517#3 624105517#2 624105517#1 624105517#0 1093375244#2 290407988#2 290407988#1 290407988#0 -264337510#5 -264337510#4 -264337510#3 -264337510#2 -264337510#0 1420311649 1420311648#2 1282031711#0 -1004737861#2 -38359845#0 -38359845#1 203589972#2 -203589972#1 1104152721#7 1104152721#6 1104152721#5 1104152721#4 1104152707#1 1104152707#0 1104152728#2 1104152728#3 1104152726#0 1104152726#1"/>
    </person>
    <person id="ped18" type="ped_pedestrian" depart="3.67">
        <walk edges="-203589969#0 -1420160203 203589949#3 1420160204 1461641460 -203589962#0 -203589962#1 1421493571#1 1421493554#8 1421493567#0 1421493567#1 1270700418#2 1270700418#1 1449631250 1270700418#6 1449631252#1 694603072 694603075#6 694603075#5 694603075#4 1030215635 1030215636 1462125970 694603074#3 -1461641462 -723507899 -1491183946#1 -1491183946#2 -1491183947#0 -1491183947#1 -138652753#0 1091830434"/>
    </person>
    <person id="ped19" type="ped_pedestrian" depart="3.87">
        <walk edges="1420311647#1 1420311646#1 366463596#1 -203589978#0 -114532723#2 -1420311660 -135704151 1188652710#0 1188652710#1 1188652710#2 1188652710#3 1328221420 -1096656623#0 1419952639#2 1419952641#1 -1125937899#1 -1125937899#0 -1214310714 -875074258 694609277#0 1099670074#1 1309272820 1419917383#0 1419917379#13 1420951656#0 -1491172370#0 -108040331#1 1421493545#1"/>
    </person>
    <person id="ped20" type="ped_pedestrian" depart="4.07">
        <walk edges="1421078874#0 1491183956 1461641447 1491183954#2 1491183954#1 203589954#2 203589954#1 -1030215633 1030215636 1421493570#1 1449631255 1414598754#0 1449631253 1449631254 1270700418#8 1270700418#9 1421493568#0 -410529595#1 115561056 1270700417 -1270699443"/>
    </person>
    <person id="ped21" type="ped_pedestrian" depart="4.28">
        <walk edges="1099672329#1 1282034520#2 1282034518#0 1282031711#0 1420311648#2 1420311649 264337510#0 264337510#2 264337510#3 1093097876 1093097875#1 1093328717#0 1093328717#1 264337510#7 -264337510#8"/>
    </person>
    <person id="ped22" type="ped_pedestrian" depart="4.48">
        <walk edges="1420175858#1 1420909165#5 1420175861#1 1420175860#0 1420175862#0 1285983576#0 1285983574#0 1420175869#0 1421493543#1 1421493551#1 38359868#1 1491183966#0 1491183966#1 -203589962#1 1421524945#1 1156138232#3 1156138233 1156138235#0 -203589973#3 1270697030#1"/>
    </person>
    <person id="ped23" type="ped_pedestrian" depart="4.68">
        <walk edges="1421524927#1 -377857998#1 962156528#0 962156528#1 962156530 962156529 962156533#1 1285983575#2 38393992#3 38393992#1 1309272820 1099670074#1 694609277#0 -875074258 -1214310714 -1125937899#0 -1125937899#1 -38393865 -1004744421 -875070294 1420175883"/>
    </person>
    <person id="ped24" type="ped_pedestrian" depart="4.89">
        <walk edges="1420311583#0 646265608 170772575 -1004737860 -545148171#1 1004744416#0 1004744417 -38375826 -1004744419 -875071472 -1087007031 -875070295 -875070294 -1004744421 -38393865 -1125937899#1 -1125937899#0 -1214310714 -875074258 694609277#0 1099670074#1 1309272820 38393992#1 38393992#3 1285983575#2 962156533#1 1421493547#2 1421493546#1 1421524919#2 1421524919#1 1421524919#0 1421524924#0 1421524920#1 184745185#2 184745185#3 1286228661#2 1421524932#0 1419584235#1 -960082441#2 -960082441#1 -960082441#0"/>
    </person>
    <person id="ped25" type="ped_pedestrian" depart="5.09">
        <walk edges="1419969578#0 1419952648#0 1419952611#4 1419952611#1 1419952617#0 824174717#1 38359851#1 1423673546 824174714 266143653 38359865#0 1423673547#1 1423673547#0 694603076#1 694603076#0 694603075#1 694603073 1449631252#1 1270700418#6 1449631250 -1270975152#1"/>
    </person>
    <person id="ped26" type="ped_pedestrian" depart="5.30">
        <walk edges="-1473211912 1420175864#1 1420175864#2 1420951641#1 1420951643#1 1420951641#0 1420951640#1 1286228657#1 1286228659#1 1419584225 1419584226#1 1419584227#1 1071851919#1 1073006578 1073006579 1073006581 1073006577 290406164#1 -290406161#1 291879576"/>
    </person>
    <person id="ped27" type="ped_pedestrian" depart="5.50">
        <walk edges="1421493543#1 1421493543#0 1420951660 1420951661#0 1420951661#1 1420175870#1 -1420951657#1 -1420951657#0 1419917380#4 1421493542#0 1420951656#0 1419917379#13 1419917383#0 1309272820 1099670074#1 694609277#0 -875074258 -1214310714 -1125937899#0 -1125937899#1 -38393865 -1004744421 -875070294 -875070295 -1087007031 -875071472 1004744418#1"/>
    </person>
    <person id="ped28" type="ped_pedestrian" depart="5.70">
        <walk edges="1104152717#1 1104152717#2 1104152721#7 -203589972#1 -203589972#2 38359845#1 38359845#0 1004737861#1 545148171#0 1004737860 1420311580 1420311585"/>
    </person>
    <person id="ped29" type="ped_pedestrian" depart="5.91">
        <walk edges="824174714 -1423673546 824174716 1423662169#0 1099670074#1 1309272820 38393992#1 -1461641437 1285983575#0 964879179#7 1069288949 -1069288952#1 -1069288952#0"/>
    </person>
    <person id="ped30" type="ped_pedestrian" depart="6.11">
        <walk edges="1421078839#1 203589964#0 1421078837 1421078844#2 1421078861#1 1421078858#0 1421078855#1 1190426925#1 1420175878#2 1420175880#0 -1125937899#1 1419952641#1 1419952639#2 -1096656623#0 1096656623#1 -1096656623#2"/>
    </person>
    <person id="ped31" type="ped_pedestrian" depart="6.31">
        <walk edges="1421524954#1 1421524956#0 1420160202 203589949#1 203589949#5 1420160205 203589973#4 203589973#3 1270697030#1"/>
    </person>
    <person id="ped32" type="ped_pedestrian" depart="6.52">
        <walk edges="-1420160205 203589949#4 -1420160204 -1461641460 -203589962#0 -203589962#1 1491183966#1 1491183966#0 38359868#1 1421493551#1 1421493543#1 1420175869#0 1285983574#0 1285983576#0"/>
    </person>
    <person id="ped33" type="ped_pedestrian" depart="6.72">
        <walk edges="1421078840#1 1421078867#0 203589954#2 -203589954#1 -38375825"/>
    </person>
    <person id="ped34" type="ped_pedestrian" depart="6.92">
        <walk edges="1270700418#3 1421493565#1 -108040331#1 -1491172370#0 1420951656#0 1419917379#13 1419917383#0 1309272820 1099670074#1 694609277#0 -875074258 1419952638#0 1419952614#9 1419952637#1 1419969582#1 1419969589 944570452 624105516#0 624105516#1 469673084 624091856#4 469673085#0 1366797029 469673083#0 1454361617#2"/>
    </person>
    <person id="ped35" type="ped_pedestrian" depart="7.13">
        <walk edges="249079039#1 -988510423#1 -1491172366#1 1419917383#0 1419917379#13 1420951656#0 1491172370#0 108040331#1 1421493565#0"/>
    </person>
    <person id="ped36" type="ped_pedestrian" depart="7.33">
        <walk edges="1419917360#1 1419917360#0 1419906652#1 -988510423#1 -1491172366#1 1419917383#0 1419917379#13 1420951656#0 1421493541#1"/>
    </person>
    <person id="ped37" type="ped_pedestrian" depart="7.54">
        <walk edges="-38375823#0 -1461641447 -1491183956 1491183957 1110340825#2 1110340825#1 1110340825#0 1136531373#0 -875070294 -875070295 -1087007031 -875071472 -1004744419 -38375826 1004744417 1004744416#0 1282034518#1"/>
    </person>
    <person id="ped38" type="ped_pedestrian" depart="7.74">
        <walk edges="1104152722#3 1104152721#4 1104152721#5 1104152721#6 1104152721#7 -203589972#1 203589972#2 -38359845#1 -38359845#0 -1004737861#2 -1004744416#1 -1004744417 -38375826 -1004744419 -875071472 -1087007031 -875070295 -875070294 1136531373#0 1110340825#0 115684384#1 -38359864#1"/>
    </person>
    <person id="ped39" type="ped_pedestrian" depart="7.94">
        <walk edges="-1096656623#1 -1096656623#0 1419952639#2 1419952641#1 -1125937899#1 -1125937899#0 -1214310714"/>
    </person>
    <person id="ped40" type="ped_pedestrian" depart="8.15">
        <walk edges="962156531#5 1419917368#0 38393992#1 1309272820 1099670074#1 694609277#0 -875074258 -1214310714 -1125937899#0 -1125937899#1 -38393865 -1004744421 -875070294 -875070295 -1087007031 -875071472 -1004744419 -38375826 1004744417 1004744416#0 1282034518#1 1282031712#1 1282031709"/>
    </person>
    <person id="ped41" type="ped_pedestrian" depart="8.35">
        <walk edges="1104152728#1 1104152707#0 1104152707#1 1104152721#4 1104152721#5 1104152721#6 1104152721#7 -203589972#1 203589972#2 -38359845#1 -38359845#0 -1004737861#2 -1004744416#1 -1004744417 -38375826 -1004744419 -875071472 -1087007031 -875070295 -875070294 1136531373#0 1420175878#0 1420175875 203589956#1 1421078871#1 1421078866#2 1421078865#1 1421078865#2"/>
    </person>
    <person id="ped42" type="ped_pedestrian" depart="8.55">
        <walk edges="1421493552#0 1421493551#1 1421493543#1 1420175869#0 1285983574#0 1285983576#0 1420175862#0 1420175860#0 1420175859#0 1420175840#2 1420909166#0 1420909166#1 1420909165#1 1420909167#0 1491172365#1 1491172365#2 1491172365#3 547154357#0 547154357#1 547154357#3"/>
    </person>
    <person id="ped43" type="ped_pedestrian" depart="8.76">
        <walk edges="624105516#1 624105516#0 944570452 1419969589 1419969583#0 1419969583#1 1419952639#0 1419952639#1 1419952641#1 -1125937899#1 1420175880#0 1420175878#2 1190426925#1 1421078855#1 1421078858#0 1421078843#1 1421078845#1 1243315247#1 1243315247#2 1243315246#1 1243315249 1243315250#0 1243315250#1 -1243315250#2"/>
    </person>
    <person id="ped44" type="ped_pedestrian" depart="8.96">
        <walk edges="1074642348#6 1074642348#5 1074642348#4 1074642348#3 1074642348#2 1074642348#1 1074642349#2 1188652710#5 1454361616 1419952639#2 1419952641#1 -1125937899#1 -1125937899#0 -1214310714 -875074258 694609277#0 1099670074#1 1309272820 38393992#1 38393992#3 1285983574#1 1285983573"/>
    </person>
    <person id="ped45" type="ped_pedestrian" depart="9.16">
        <walk edges="1104152721#1 1104152721#2 1104152702 1104152703#1 1104152721#6 1104152721#7 -203589972#1 203589972#2 -38359845#1 -38359845#0 -1004737861#2 -1004744416#1 -1004744417 -38375826 -1004744419 -875071472 -1087007031 -875070295 -875070294 -1004744421 -38393865 -1125937899#1 -1125937899#0 -1214310714 -875074258 694609277#0 1099670074#1 1309272820 38393992#1 -1461641437 1285983576#1 962156531#1 1420175860#1 1420175861#0 1420175862#2 1420175862#3"/>
    </person>
    <person id="ped46" type="ped_pedestrian" depart="9.37">
        <walk edges="1071262614 1071262612#2 1419584234#1 1419584241#1 1419584238#1 1419584238#2 1419584237#1 1419584236#1 1419584235#1 1286228659#0 417228502#1 417228502#2 1491172359#0 -1461641437 -38393992#2 -1099670076#1 1099670075#0 548247853#2"/>
    </person>
    <person id="ped47" type="ped_pedestrian" depart="9.57">
        <walk edges="1110340825#5 1110340825#4 1110340825#3 1110340825#2 1110340825#1 1110340825#0 1136531373#0 1136531373#1 1188652710#5 1188652710#4 1188652710#3 1096264170#0 1096264170#1 624105516#4 624105516#3 469673085#2 469673085#1 469673085#0"/>
    </person>
    <person id="ped48" type="ped_pedestrian" depart="9.78">
        <walk edges="671979938#1 377857999#0 377857999#1 377857999#2 377857999#3 -1104042254#0 1104042256#0 1104042256#1 377858000#1 1419917375#1 -116457542#1 -116457542#2 -116457542#4 1419917366#0 1419917360#0 1419906652#1 249079039#1 249079039#0 1461641388 548247853#2 1423662169#0 824174716 203589964#0 1421078837 1421078844#2 1421078861#1 1421078860#1 1421078865#1 1421078866#2 1421078871#1 1421078870#0 1421078868#5"/>
    </person>
    <person id="ped49" type="ped_pedestrian" depart="9.98">
        <walk edges="1093375243#1 1093375243#0 30951906#1 875070295 -875070294 -1004744421 -38393865 -1125937899#1 1420175880#0 1420175878#2 1190426925#1 1421078855#1 1421078858#0 1421078843#1 1421078845#1 1243315247#1 1243315247#2 1243315246#1 1243315249 1243315250#0 -1243315250#1"/>
    </person>
    <person id="ped50" type="ped_pedestrian" depart="10.18">
        <walk edges="987418409#1 1069293035#1 1069293035#0 964879179#4 964879179#3 987418408 671983144#1 671983144#0 1421524919#1 987418407#0 1421493558#1 1421493560#1 377857997#1 264473952#0 264473952#2 264473952#3 264473952#5 960082450 960082452 291878855#5 291878855#6 291878855#7 687309617"/>
    </person>
    <person id="ped51" type="ped_pedestrian" depart="10.39">
        <walk edges="1419917377#1 1419917377#0 1419917367#5 1419917378#0 1309272820 1099670074#1 1423662169#0 824174716 1423673546 -824174714 824174715 38359865#2 1491183952 1068837568 1491183954#0 1491183954#1 1491183954#2 38375823#0 38375823#1 1365389583#0 1365389583#1 1365389583#2 -694603074#2 -694603074#1 1473695733 1479274894 -1263583826"/>
    </person>
    <person id="ped52" type="ped_pedestrian" depart="10.59">
        <walk edges="1421524941#1 1421493571#1 1421493554#8 1421493554#9 1491172368#0 108040331#1 1491172370#0 1420951656#0 1419917379#13 1419917383#0 1309272820 1099670074#1 694609277#0 -875074258 -1214310714 -1125937899#0 -1125937899#1 -38393865 -1004744421 -875070294 -875070295 -1087007031 -875071472 -1004744419 -38375826 -1004744417 -1004744416#1 -1004737861#2 -38359845#0 -38359845#1 203589972#2 -203589972#1 1104152721#7 1104152721#6 1104152721#5 1104152721#4"/>
    </person>
    <person id="ped53" type="ped_pedestrian" depart="10.79">
        <walk edges="1419584242#1 1419584242#0 1419584234#0 1419584234#1 1419584241#1 1419584238#1 1419584238#2 1419584237#1 1419584236#1 1419584235#1 1286228659#0 1286228661#0 964879179#1 964879179#2 964879179#3 964879179#4 964879179#5"/>
    </person>
    <person id="ped54" type="ped_pedestrian" depart="11.00">
        <walk edges="624105519#3 1454361617#3 1454361617#2 1454361617#1 1454361617#0 1454361619 624105517#4 624105517#3 1188652710#1 1188652710#2 1188652710#3 1188652710#4 1188652710#5 1420175876 -875070295 -1087007031 290182669#1"/>
    </person>
    <person id="ped55" type="ped_pedestrian" depart="11.20">
        <walk edges="1420311640#1 -114150961#3 114150961#4 1409708183 -114532723#2 -1420311660 -135704151 1188652710#0 1188652710#1 1188652710#2 1188652710#3 1328221420 -1096656623#0 1419952639#2 1419952641#1 -1125937899#1 -1125937899#0 -1214310714 -875074258 694609277#0 1099670074#1 1309272820 1419917383#0 1419917379#13 1420951656#0 1491172370#0 108040331#1 1491172369#1 1491172369#0 824158743#1 1421493553#0"/>
    </person>
    <person id="ped56" type="ped_pedestrian" depart="11.40">
        <walk edges="1421078855#0 1243305032#1 1421078857#1 1420951669#1 38375839#2 1243305031 1420175879#2 1420175881#0 1099670074#1 1309272820 38393992#1 38393992#3 1285983575#2 962156533#1 1421493547#2 1421493546#1 1421524919#2 1421524919#1 1421524919#0 1421524924#0 1421524920#1 1421524920#0 1421524921#3 1421524921#2"/>
    </person>
    <person id="ped57" type="ped_pedestrian" depart="11.61">
        <walk edges="1421493543#5 1421493563#1 1491172369#1 1491172369#0 824158743#1 1421493553#0 1420175869#3 1421493548#1 1421493550#1 1421493547#1 1421493546#1 1421524919#2 1421524919#1 671983144#0 671983144#1 987418408 964879179#3 1066897506#1 1066897503 1420175867 1420175866 1420175863#1 -1473211912"/>
    </person>
    <person id="ped58" type="ped_pedestrian" depart="11.81">
        <walk edges="1066890896#1 1420951640#1 1286228657#1 1286228659#0 1419584235#1 1419584236#1 1461641456#1 291878855#0 291878855#1 291878855#2 291878855#3 291925971 -960082453#0 960082456 266143622#2 266143622#1 266143622#0 958484858 266143617 253106102#0 253106102#1 253106102#2 253106102#3 1104067886 253106099#0 1421524944#2 1421524953#0 1420160203"/>
    </person>
    <person id="ped59" type="ped_pedestrian" depart="12.02">
        <walk edges="1420311642#1 1420311644#1 -203589978#3 -203589978#2 -203589978#1 -203589978#0 -114532723#2 -1420311660 -135704151 1188652710#0 1188652710#1 1188652710#2 1188652710#3 1328221420 -1096656623#0 1419952639#2 1419952641#1 -1125937899#1 -1125937899#0 -1214310714 -875074258 694609277#0 1099670074#1 1309272820 1419917383#0 1419917379#13 1420951656#0 1491172370#0 108040331#1 1491172368#0 1421493554#9 1421493554#8 1421493571#1 1421524941#0 1421524923#2"/>
    </person>
    <person id="ped60" type="ped_pedestrian" depart="12.22">
        <walk edges="1022114286 38359866#1 38359866#2 87494508#4 87494508#5 1461641449#0 1461641449#1 203589954#1 203589954#2 -1491183954#0 1068837568 1491183952 38359865#2 824174715 -824174714 1423673546 -203589964#0 38375839#1 1243309639#1"/>
    </person>
    <person id="ped61" type="ped_pedestrian" depart="12.42">
        <walk edges="1074642356 1074642348#5 1074642348#4 1074642348#3 1074642348#2 1074642348#1 1074642349#2 1188652710#5 1454361616 1419952639#2 1419952641#1 -1125937899#1 -1125937899#0 -1214310714 -875074258 694609277#0 1420951649#0 1419917379#7 1419917379#8 1419917379#9 1419917379#10 1420951654#0 1420951654#1 1420951654#2"/>
    </person>
    <person id="ped62" type="ped_pedestrian" depart="12.63">
        <walk edges="1104042255#0 547154357#0 1491172365#3 1491172365#2 1491172365#1 1420909167#0 1420909165#1 1420909166#1 1420909166#0 1420175840#2 1420175859#0 1420175860#0 1420175862#0 1285983576#0 1491172359#0 417228502#2 417228502#1 1286228659#1 1419584225 1419584226#1 1419584227#1 1071851919#1 1073006578 1073006579 1073006581 1073006577 290406164#1 -290406161#1 -290406161#0"/>
    </person>
    <person id="ped63" type="ped_pedestrian" depart="12.83">
        <walk edges="1104152703#0 1104152703#1 1104152721#6 1104152721#7 -203589972#1 203589972#2 -38359845#1 -38359845#0 -1004737861#2 -1004744416#1 -1004744417 -38375826 -1004744419 -875071472 -1087007031 -875070295 -875070294 -1004744421 -38393865 -1125937899#1 -1125937899#0 -1214310714 -875074258 694609277#0 1099670074#1 1309272820 38393992#1 -1461641437 1285983575#0 964879179#7 964879179#6 964879179#5 1069293035#0 1069293035#1 987418409#1"/>
    </person>
    <person id="ped64" type="ped_pedestrian" depart="13.03">
        <walk edges="1420311628#1 1420311636#0 -203589978#6 -203589978#4 -203589978#3 -203589978#2 -203589978#1 -203589978#0 -114532723#2 292793284#2 366463595 292793285"/>
    </person>
    <person id="ped65" type="ped_pedestrian" depart="13.24">
        <walk edges="1419917378#0 1419917367#5 1419917367#4 1419917369#0 1419917369#1 962156531#4 962156531#3 1419917371#0"/>
    </person>
    <person id="ped66" type="ped_pedestrian" depart="13.44">
        <walk edges="1093328721 30951906#1 875070295 1420175876 1188652710#5 1074642349#2 1074642348#1 1074642348#2 1074642348#3 1074642348#4 1074642348#5 1074642356"/>
    </person>
    <person id="ped67" type="ped_pedestrian" depart="13.65">
        <walk edges="624091856#1 624091856#4 469673084 624105516#1 624105516#0 944570452 1419969589 1419969582#1 1419952637#1 1419952614#9 1419952614#8 1419952614#7 1419952614#6 1419952614#5 1420175881#2 1099670075#0 -1099670076#1 1419917378#0"/>
    </person>
    <person id="ped68" type="ped_pedestrian" depart="13.85">
        <walk edges="1419952635#1 1420175880#1 1125937899#0 1214310714 875074258 694609276 548247853#2 1461641388 249079039#0 249079039#1 -988510423#1"/>
    </person>
    <person id="ped69" type="ped_pedestrian" depart="14.05">
        <walk edges="1421493535#3 1421493564#0 1491172369#1"/>
    </person>
    <person id="ped70" type="ped_pedestrian" depart="14.26">
        <walk edges="-253106105#2 253106105#3 253106104#0 253106104#1 988510419#1 988510419#0 1096947450 958484859 958484858 266143617 266143630#1 266143630#0 264473953 1421524939 1421524938#1 1421493571#1 1421493554#8 1421493567#0 1421493567#1 1270700418#2 1270700418#1 1449631250 1270700418#6 1449631252#1 694603072 694603075#6 694603075#5 694603075#4 694603075#3 38359852#2 1421078888#2 1421078885#3"/>
    </person>
    <person id="ped71" type="ped_pedestrian" depart="14.46">
        <walk edges="1454361617#1 1454361617#0 1454361619 624105517#4 624105517#3 1188652710#0 441713196 1420311660 -114532723#0"/>
    </person>
    <person id="ped72" type="ped_pedestrian" depart="14.66">
        <walk edges="170772575 -1004737860 -545148171#1 1004744416#0 1004744417 -38375826 -1004744419 -875071472 -1087007031 -875070295 -875070294 -1004744421 -38393865 -1125937899#1 -1125937899#0 -1214310714 -875074258 694609277#0 1099670074#1 1309272820 1419917383#0 1419917379#13 1420951656#0 1491172370#0 108040331#1 1491172368#0 1421493554#9 1421493554#8 1421493571#1 1421524940#0 1421524937#0 264473535#0 264473535#1"/>
    </person>
    <person id="ped73" type="ped_pedestrian" depart="14.87">