<?xml version="1.0" encoding="UTF-8"?>

<!-- generated on 2026-04-12 21:03:04.082623 by Eclipse SUMO osmwebwizard.py v1_26_0+0000-fa7df22d7f1
<configuration>
    <net-file value="C:\Program Files (x86)\Eclipse\Sumo\2026-04-12-21-02-35\osm.net.xml.gz"/>
    <output-trip-file value="C:\Program Files (x86)\Eclipse\Sumo\2026-04-12-21-02-35\osm.passenger.trips.xml"/>
    <route-file value="C:\Program Files (x86)\Eclipse\Sumo\2026-04-12-21-02-35\osm.passenger.rou.xml"/>
    <prefix value="veh"/>
    <trip-attributes value="departLane=&quot;best&quot;"/>
    <fringe-start-attributes value="departSpeed=&quot;max&quot;"/>
    <vehicle-class value="passenger"/>
    <lanes value="True"/>
    <fringe-factor value="15"/>
    <allow-fringe.min-length value="1000.0"/>
    <edge-permission value="passenger"/>
    <via-edge-types value="highway.motorway,highway.motorway_link,highway.trunk_link,highway.primary_link,highway.secondary_link,highway.tertiary_link"/>
    <seed value="45"/>
    <min-distance value="300.0"/>
    <min-distance.fringe value="10.0"/>
    <remove-loops value="True"/>
    <end value="600.0"/>
    <insertion-density value="40.0"/>
</configuration>
-->

<routes xmlns:xsi="http://www.w3.org/2001/XMLSchema-instance" xsi:noNamespaceSchemaLocation="http://sumo.dlr.de/xsd/routes_file.xsd">
    <vType id="veh_passenger" vClass="passenger"/>
    <trip id="veh0" depart="0.00" from="-424514808" to="115561673#4" departLane="best" type="veh_passenger" departSpeed="max"/>
    <trip id="veh1" depart="1.13" from="-115673859#1" to="1057883200#1" departLane="best" type="veh_passenger" departSpeed="max"/>
    <trip id="veh2" depart="2.25" from="-115561673#3" to="-103426225#5" departLane="best" type="veh_passenger"/>
    <trip id="veh3" depart="3.38" from="-624091858#3" to="243006968#1" departLane="best" type="veh_passenger" departSpeed="max"/>
    <trip id="veh4" depart="4.50" from="-1125937900#1" to="1491172359#0" departLane="best" type="veh_passenger"/>
    <trip id="veh5" depart="5.63" from="-1461641387" to="38393868#0" departLane="best" type="veh_passenger" departSpeed="max"/>
    <trip id="veh6" depart="6.75" from="184745185#5" to="-38359857#0" departLane="best" type="veh_passenger"/>
    <trip id="veh7" depart="7.88" from="38359857#0" to="203589962#1" departLane="best" type="veh_passenger" departSpeed="max"/>
    <trip id="veh8" depart="9.00" from="-115561673#4" to="114531734#2" departLane="best" type="veh_passenger" departSpeed="max"/>
    <trip id="veh9" depart="10.13" from="1491183963" to="683745965#0" departLane="best" type="veh_passenger" departSpeed="max"/>
    <trip id="veh10" depart="11.25" from="-1491172372#1" to="-547154355#0" departLane="best" type="veh_passenger"/>
    <trip id="veh11" depart="12.38" from="203589969#1" to="87494508#0" departLane="best" type="veh_passenger"/>
    <trip id="veh12" depart="13.50" from="1013138963#0" to="547154356#1" departLane="best" type="veh_passenger" departSpeed="max"/>
    <trip id="veh13" depart="14.63" from="38393875#1" to="203589977#1" departLane="best" type="veh_passenger"/>
    <trip id="veh14" depart="15.75" from="266143650#2" to="1491183946#2" departLane="best" type="veh_passenger"/>
    <trip id="veh15" depart="16.88" from="1420160202" to="-114532723#0" departLane="best" type="veh_passenger"/>
    <trip id="veh16" depart="18.00" from="547154357#0" to="630462798#5" departLane="best" type="veh_passenger"/>
    <trip id="veh17" depart="19.13" from="-875027029#2" to="1491172360#0" departLane="best" type="veh_passenger"/>
    <trip id="veh18" depart="20.25" from="1461641434#1" to="-911225805#1" departLane="best" type="veh_passenger"/>
    <trip id="veh19" depart="21.38" from="108045029#0" to="422195693#1" departLane="best" type="veh_passenger" departSpeed="max"/>
    <trip id="veh20" depart="22.50" from="-1461641442#1" to="115560947#0" departLane="best" type="veh_passenger" departSpeed="max"/>
    <trip id="veh21" depart="23.63" from="38691414#1" to="148331423" departLane="best" type="veh_passenger"/>
    <trip id="veh22" depart="24.75" from="-108934130" to="453743055" departLane="best" type="veh_passenger"/>
    <trip id="veh23" depart="25.88" from="-459456563" to="-911225805#1" departLane="best" type="veh_passenger"/>
    <trip id="veh24" depart="27.00" from="-203589956#1" to="148331423" departLane="best" type="veh_passenger" departSpeed="max"/>
    <trip id="veh25" depart="28.13" from="-115514116#5" to="723313369#4" departLane="best" type="veh_passenger" departSpeed="max"/>
    <trip id="veh26" depart="29.25" from="-115684382" to="1491172358" departLane="best" type="veh_passenger" departSpeed="max"/>
    <trip id="veh27" depart="30.38" from="-424514814#1" to="115560895#1" departLane="best" type="veh_passenger" departSpeed="max"/>
    <trip id="veh28" depart="31.51" from="-646265607#0" to="875027029#2" departLane="best" type="veh_passenger"/>
    <trip id="veh29" depart="32.63" from="1461641443#0" to="116451461#1" departLane="best" type="veh_passenger" departSpeed="max"/>
    <trip id="veh30" depart="33.76" from="1491172357#1" to="115673859#1" departLane="best" type="veh_passenger"/>
    <trip id="veh31" depart="34.88" from="-1461641452#0" to="-108045029#0" departLane="best" type="veh_passenger"/>
    <trip id="veh32" depart="36.01" from="203589976#3" to="547154357#3" departLane="best" type="veh_passenger"/>
    <trip id="veh33" depart="37.13" from="-115561180#2" to="-1461641433#1" departLane="best" type="veh_passenger"/>
    <trip id="veh34" depart="38.26" from="1013138963#0" to="1462125975" departLane="best" type="veh_passenger" departSpeed="max"/>
    <trip id="veh35" depart="39.38" from="-115673859#1" to="184745185#1" departLane="best" type="veh_passenger" departSpeed="max"/>
    <trip id="veh36" depart="40.51" from="38359857#0" to="108932067" departLane="best" type="veh_passenger" departSpeed="max"/>
    <trip id="veh37" depart="41.63" from="266157747" to="108899907#1" departLane="best" type="veh_passenger" departSpeed="max"/>
    <trip id="veh38" depart="42.76" from="1062204371" to="108686053#1" departLane="best" type="veh_passenger"/>
    <trip id="veh39" depart="43.88" from="-115561673#3" to="1461641458#3" departLane="best" type="veh_passenger"/>
    <trip id="veh40" depart="45.01" from="372020013#1" to="164415954#2" departLane="best" type="veh_passenger"/>
    <trip id="veh41" depart="46.13" from="417192344#2" to="-38359857#1" departLane="best" type="veh_passenger"/>
    <trip id="veh42" depart="47.26" from="723313369#6" to="1099670074#1" departLane="best" type="veh_passenger"/>
    <trip id="veh43" depart="48.38" from="115561079" to="203589956#1" departLane="best" type="veh_passenger" departSpeed="max"/>
    <trip id="veh44" depart="49.51" from="1491183946#0" to="1461641460" departLane="best" type="veh_passenger"/>
    <trip id="veh45" depart="50.63" from="38393875#1" to="1491183944#2" departLane="best" type="veh_passenger"/>
    <trip id="veh46" depart="51.76" from="570104370" to="1491183956" departLane="best" type="veh_passenger" departSpeed="max"/>
    <trip id="veh47" depart="52.88" from="1365389583#0" to="-114532723#0" departLane="best" type="veh_passenger"/>
    <trip id="veh48" depart="54.01" from="1461641433#0" to="108045029#1" departLane="best" type="veh_passenger"/>
    <trip id="veh49" depart="55.13" from="1461641457#0" to="417228502#2" departLane="best" type="veh_passenger"/>
    <trip id="veh50" depart="56.26" from="694756702#0" to="38691386#1" departLane="best" type="veh_passenger" departSpeed="max"/>
    <trip id="veh51" depart="57.38" from="38359849#1" to="108895901#0" departLane="best" type="veh_passenger"/>
    <trip id="veh52" depart="58.51" from="-115560946#1" to="30951906#1" departLane="best" type="veh_passenger"/>
    <trip id="veh53" depart="59.63" from="949547104" to="115561161#1" departLane="best" type="veh_passenger" departSpeed="max"/>
    <trip id="veh54" depart="60.76" from="545148171#0" to="1461641387" departLane="best" type="veh_passenger"/>
    <trip id="veh55" depart="61.88" from="1013138963#0" to="422195693#1" departLane="best" type="veh_passenger" departSpeed="max"/>
    <trip id="veh56" depart="63.01" from="1491183962#1" to="-115560987" departLane="best" type="veh_passenger"/>
    <trip id="veh57" depart="64.14" from="115561669#0" to="108932067" departLane="best" type="veh_passenger" departSpeed="max"/>
    <trip id="veh58" depart="65.26" from="-266143655#4" to="114531734#2" departLane="best" type="veh_passenger"/>
    <trip id="veh59" depart="66.39" from="138652753#1" to="38359851#1" departLane="best" type="veh_passenger"/>
    <trip id="veh60" depart="67.51" from="1068837568" to="1461641442#1" departLane="best" type="veh_passenger"/>
    <trip id="veh61" depart="68.64" from="243006970#1" to="931220687#0" departLane="best" type="veh_passenger"/>
    <trip id="veh62" depart="69.76" from="154717201#0" to="875071472" departLane="best" type="veh_passenger" departSpeed="max"/>
    <trip id="veh63" depart="70.89" from="1461641459#1" to="-725287636#0" departLane="best" type="veh_passenger"/>
    <trip id="veh64" depart="72.01" from="38393869#0" to="154717203#0" departLane="best" type="veh_passenger"/>
    <trip id="veh65" depart="73.14" from="1461641439" to="-1461641443#1" departLane="best" type="veh_passenger"/>
    <trip id="veh66" depart="74.26" from="115673962#0" to="1057883200#1" departLane="best" type="veh_passenger" departSpeed="max"/>
    <trip id="veh67" depart="75.39" from="116625957#0" to="694603072" departLane="best" type="veh_passenger"/>
    <trip id="veh68" depart="76.51" from="1004744421" to="-108045029#0" departLane="best" type="veh_passenger"/>
    <trip id="veh69" depart="77.64" from="108045029#0" to="1057883200#1" departLane="best" type="veh_passenger" departSpeed="max"/>
    <trip id="veh70" depart="78.76" from="115560987" to="-694756702#0" departLane="best" type="veh_passenger" departSpeed="max"/>
    <trip id="veh71" depart="79.89" from="38393992#1" to="410552443" departLane="best" type="veh_passenger"/>
    <trip id="veh72" depart="81.01" from="459456564#4" to="-138652733" departLane="best" type="veh_passenger"/>
    <trip id="veh73" depart="82.14" from="115561082#0" to="-38691413" departLane="best" type="veh_passenger" departSpeed="max"/>
    <trip id="veh74" depart="83.26" from="1462125970" to="115560947#1" departLane="best" type="veh_passenger"/>
    <trip id="veh75" depart="84.39" from="114532723#0" to="-115561670#0" departLane="best" type="veh_passenger" departSpeed="max"/>
    <trip id="veh76" depart="85.51" from="108646023#0" to="-266143646#1" departLane="best" type="veh_passenger"/>
    <trip id="veh77" depart="86.64" from="115561079" to="466365026" departLane="best" type="veh_passenger" departSpeed="max"/>
    <trip id="veh78" depart="87.76" from="694603076#0" to="-1461641443#1" departLane="best" type="veh_passenger"/>
    <trip id="veh79" depart="88.89" from="-1423673546" to="949547103#1" departLane="best" type="veh_passenger"/>
    <trip id="veh80" depart="90.01" from="115561079" to="1491172368#0" departLane="best" type="veh_passenger" departSpeed="max"/>
    <trip id="veh81" depart="91.14" from="1491183960" to="114533140#1" departLane="best" type="veh_passenger"/>
    <trip id="veh82" depart="92.26" from="1013138963#0" to="466365026" departLane="best" type="veh_passenger" departSpeed="max"/>
    <trip id="veh83" depart="93.39" from="1461641435" to="-108045029#0" departLane="best" type="veh_passenger"/>
    <trip id="veh84" depart="94.52" from="-114531734#2" to="422195701" departLane="best" type="veh_passenger" departSpeed="max"/>
    <trip id="veh85" depart="95.64" from="1420160202" to="243007677" departLane="best" type="veh_passenger"/>
    <trip id="veh86" depart="96.77" from="115560983#2" to="203589956#1" departLane="best" type="veh_passenger"/>
    <trip id="veh87" depart="97.89" from="-824158743#2" to="1057888578" departLane="best" type="veh_passenger"/>
    <trip id="veh88" depart="99.02" from="723313366#2" to="547154356#1" departLane="best" type="veh_passenger"/>
    <trip id="veh89" depart="100.14" from="115561204#0" to="-1099670076#1" departLane="best" type="veh_passenger" departSpeed="max"/>
    <trip id="veh90" depart="101.27" from="1461641443#0" to="87494508#1" departLane="best" type="veh_passenger" departSpeed="max"/>
    <trip id="veh91" depart="102.39" from="108686154#0" to="-1491183966#0" departLane="best" type="veh_passenger" departSpeed="max"/>
    <trip id="veh92" depart="103.52" from="-1462125975" to="-115561670#0" departLane="best" type="veh_passenger" departSpeed="max"/>
    <trip id="veh93" depart="104.64" from="931398779" to="646265608" departLane="best" type="veh_passenger"/>
    <trip id="veh94" depart="105.77" from="-453743055" to="-115561669#0" departLane="best" type="veh_passenger" departSpeed="max"/>
    <trip id="veh95" depart="106.89" from="-949547103#1" to="266143650#1" departLane="best" type="veh_passenger" departSpeed="max"/>
    <trip id="veh96" depart="108.02" from="694756702#0" to="115560897" departLane="best" type="veh_passenger" departSpeed="max"/>
    <trip id="veh97" depart="109.14" from="38359857#0" to="203589954#2" departLane="best" type="veh_passenger" departSpeed="max"/>
    <trip id="veh98" depart="110.27" from="931388877" to="-1461641443#1" departLane="best" type="veh_passenger"/>
    <trip id="veh99" depart="111.39" from="694756702#0" to="-911225805#1" departLane="best" type="veh_passenger" departSpeed="max"/>
    <trip id="veh100" depart="112.52" from="-115561673#4" to="-1461641443#1" departLane="best" type="veh_passenger" departSpeed="max"/>
    <trip id="veh101" depart="113.64" from="-108899907#2" to="1309272820" departLane="best" type="veh_passenger"/>
    <trip id="veh102" depart="114.77" from="1461641443#0" to="-875027029#1" departLane="best" type="veh_passenger" departSpeed="max"/>
    <trip id="veh103" depart="115.89" from="-1087007031" to="-108882988" departLane="best" type="veh_passenger"/>
    <trip id="veh104" depart="117.02" from="1491183954#0" to="-1004737860" departLane="best" type="veh_passenger"/>
    <trip id="veh105" depart="118.14" from="1461641443#0" to="-114532723#0" departLane="best" type="veh_passenger" departSpeed="max"/>
    <trip id="veh106" depart="119.27" from="-203589956#1" to="417235700" departLane="best" type="veh_passenger" departSpeed="max"/>
    <trip id="veh107" depart="120.39" from="1137637521#1" to="115673859#1" departLane="best" type="veh_passenger"/>
    <trip id="veh108" depart="121.52" from="266157747" to="1491183956" departLane="best" type="veh_passenger" departSpeed="max"/>
    <trip id="veh109" depart="122.64" from="-1491172369#0" to="115561168#3" departLane="best" type="veh_passenger"/>
    <trip id="veh110" depart="123.77" from="723313369#4" to="-266143646#1" departLane="best" type="veh_passenger"/>
    <trip id="veh111" depart="124.90" from="1028732094#0" to="-266143646#1" departLane="best" type="veh_passenger"/>
    <trip id="veh112" depart="126.02" from="-453743055" to="-38375844#2" departLane="best" type="veh_passenger" departSpeed="max"/>
    <trip id="veh113" depart="127.15" from="1461641457#0" to="249079040#1" departLane="best" type="veh_passenger"/>
    <trip id="veh114" depart="128.27" from="38691390#3" to="-1461641443#1" departLane="best" type="veh_passenger"/>
    <trip id="veh115" depart="129.40" from="949547104" to="154717203#0" departLane="best" type="veh_passenger" departSpeed="max"/>
    <trip id="veh116" depart="130.52" from="-424514808" to="154717203#0" departLane="best" type="veh_passenger" departSpeed="max"/>
    <trip id="veh117" depart="131.65" from="-424514808" to="-115560988#2" departLane="best" type="veh_passenger" departSpeed="max"/>
    <trip id="veh118" depart="132.77" from="-249079040#2" to="453743055" departLane="best" type="veh_passenger" departSpeed="max"/>
    <trip id="veh119" depart="133.90" from="-988510417#2" to="1491183957" departLane="best" type="veh_passenger"/>
    <trip id="veh120" depart="135.02" from="1125927214#2" to="-38691413" departLane="best" type="veh_passenger"/>
    <trip id="veh121" depart="136.15" from="108882988" to="-38393869#0" departLane="best" type="veh_passenger" departSpeed="max"/>
    <trip id="veh122" depart="137.27" from="108882988" to="-266143646#1" departLane="best" type="veh_passenger" departSpeed="max"/>
    <trip id="veh123" depart="138.40" from="-1461641387" to="38393860#0" departLane="best" type="veh_passenger" departSpeed="max"/>
    <trip id="veh124" depart="139.52" from="694603072" to="646265607#0" departLane="best" type="veh_passenger"/>
    <trip id="veh125" depart="140.65" from="348587225#1" to="115673859#1" departLane="best" type="veh_passenger"/>
    <trip id="veh126" depart="141.77" from="115561078" to="-1068024437#0" departLane="best" type="veh_passenger" departSpeed="max"/>
    <trip id="veh127" depart="142.90" from="203589970#0" to="624091858#3" departLane="best" type="veh_passenger"/>
    <trip id="veh128" depart="144.02" from="115673962#0" to="-38393992#2" departLane="best" type="veh_passenger" departSpeed="max"/>
    <trip id="veh129" depart="145.15" from="38691386#1" to="1420160203" departLane="best" type="veh_passenger"/>
    <trip id="veh130" depart="146.27" from="-1491183944#0" to="1461641442#1" departLane="best" type="veh_passenger"/>
    <trip id="veh131" depart="147.40" from="38375826" to="-1461641464" departLane="best" type="veh_passenger"/>
    <trip id="veh132" depart="148.52" from="-1462125975" to="1491172369#0" departLane="best" type="veh_passenger" departSpeed="max"/>
    <trip id="veh133" depart="149.65" from="-1461641387" to="266143651#1" departLane="best" type="veh_passenger" departSpeed="max"/>
    <trip id="veh134" depart="150.77" from="1461641422#0" to="115561179#1" departLane="best" type="veh_passenger" departSpeed="max"/>
    <trip id="veh135" depart="151.90" from="113595957#0" to="875070295" departLane="best" type="veh_passenger" departSpeed="max"/>
    <trip id="veh136" depart="153.02" from="-571179089#1" to="1461641388" departLane="best" type="veh_passenger" departSpeed="max"/>
    <trip id="veh137" depart="154.15" from="108885733#0" to="824174715" departLane="best" type="veh_passenger"/>
    <trip id="veh138" depart="155.27" from="1004744421" to="-1004744417" departLane="best" type="veh_passenger"/>
    <trip id="veh139" depart="156.40" from="417228502#1" to="-459456563" departLane="best" type="veh_passenger"/>
    <trip id="veh140" depart="157.53" from="1461641443#0" to="422195693#1" departLane="best" type="veh_passenger" departSpeed="max"/>
    <trip id="veh141" depart="158.65" from="417228502#2" to="38691389#0" departLane="best" type="veh_passenger"/>
    <trip id="veh142" depart="159.78" from="1462125970" to="114533140#1" departLane="best" type="veh_passenger"/>
    <trip id="veh143" depart="160.90" from="38691413" to="87494509#5" departLane="best" type="veh_passenger" departSpeed="max"/>
    <trip id="veh144" depart="162.03" from="108045029#0" to="114150961#2" departLane="best" type="veh_passenger" departSpeed="max"/>
    <trip id="veh145" depart="163.15" from="875021163" to="-108686154#0" departLane="best" type="veh_passenger" departSpeed="max"/>
    <trip id="veh146" depart="164.28" from="723313366#1" to="417235700" departLane="best" type="veh_passenger"/>
    <trip id="veh147" depart="165.40" from="-203589956#1" to="1491172365#2" departLane="best" type="veh_passenger" departSpeed="max"/>
    <trip id="veh148" depart="166.53" from="1004744419" to="243008519#1" departLane="best" type="veh_passenger"/>
    <trip id="veh149" depart="167.65" from="570104370" to="249079040#1" departLane="best" type="veh_passenger" departSpeed="max"/>
    <trip id="veh150" depart="168.78" from="38359851#1" to="-875027029#1" departLane="best" type="veh_passenger"/>
    <trip id="veh151" depart="169.90" from="115560987" to="115561179#0" departLane="best" type="veh_passenger" departSpeed="max"/>
    <trip id="veh152" depart="171.03" from="694756702#0" to="-38359857#0" departLane="best" type="veh_passenger" departSpeed="max"/>
    <trip id="veh153" depart="172.15" from="-87494509#1" to="694609277#0" departLane="best" type="veh_passenger"/>
    <trip id="veh154" depart="173.28" from="547154355#0" to="-547266341" departLane="best" type="veh_passenger" departSpeed="max"/>
    <trip id="veh155" depart="174.40" from="-630462798#5" to="1491183944#1" departLane="best" type="veh_passenger" departSpeed="max"/>
    <trip id="veh156" depart="175.53" from="-1461641387" to="-875070294" departLane="best" type="veh_passenger" departSpeed="max"/>
    <trip id="veh157" depart="176.65" from="-135704149" to="203589956#1" departLane="best" type="veh_passenger"/>
    <trip id="veh158" depart="177.78" from="38359845#1" to="1423662169#0" departLane="best" type="veh_passenger"/>
    <trip id="veh159" depart="178.90" from="1461641462" to="-417309446#2" departLane="best" type="veh_passenger"/>
    <trip id="veh160" depart="180.03" from="1491183946#0" to="1057883200#1" departLane="best" type="veh_passenger"/>
    <trip id="veh161" depart="181.15" from="-115514116#5" to="108932696" departLane="best" type="veh_passenger" departSpeed="max"/>
    <trip id="veh162" depart="182.28" from="-1461641387" to="-1461641443#1" departLane="best" type="veh_passenger" departSpeed="max"/>
    <trip id="veh163" depart="183.40" from="185549299" to="1428233169" departLane="best" type="veh_passenger" departSpeed="max"/>
    <trip id="veh164" depart="184.53" from="1491183960" to="-1491183966#0" departLane="best" type="veh_passenger"/>
    <trip id="veh165" depart="185.65" from="1461641443#0" to="372020013#1" departLane="best" type="veh_passenger" departSpeed="max"/>
    <trip id="veh166" depart="186.78" from="114150961#1" to="1030215636" departLane="best" type="veh_passenger"/>
    <trip id="veh167" depart="187.91" from="38359857#0" to="1461641387" departLane="best" type="veh_passenger" departSpeed="max"/>
    <trip id="veh168" depart="189.03" from="114532723#0" to="108933164" departLane="best" type="veh_passenger" departSpeed="max"/>
    <trip id="veh169" depart="190.16" from="-1473695733" to="-243006970#1" departLane="best" type="veh_passenger"/>
    <trip id="veh170" depart="191.28" from="-424514808" to="-1068024437#0" departLane="best" type="veh_passenger" departSpeed="max"/>
    <trip id="veh171" depart="192.41" from="-1462125975" to="1461641452#1" departLane="best" type="veh_passenger" departSpeed="max"/>
    <trip id="veh172" depart="193.53" from="115561204#0" to="1461641442#1" departLane="best" type="veh_passenger" departSpeed="max"/>
    <trip id="veh173" depart="194.66" from="99682907#2" to="116457542#3" departLane="best" type="veh_passenger"/>
    <trip id="veh174" depart="195.78" from="203589957#1" to="-931220687#0" departLane="best" type="veh_passenger"/>
    <trip id="veh175" depart="196.91" from="266143646#0" to="1365389583#1" departLane="best" type="veh_passenger" departSpeed="max"/>
    <trip id="veh176" depart="198.03" from="38375838" to="824174714" departLane="best" type="veh_passenger"/>
    <trip id="veh177" depart="199.16" from="-203589969#0" to="547154357#3" departLane="best" type="veh_passenger"/>
    <trip id="veh178" depart="200.28" from="1461641443#0" to="547154357#3" departLane="best" type="veh_passenger" departSpeed="max"/>
    <trip id="veh179" depart="201.41" from="-115514116#5" to="422195701" departLane="best" type="veh_passenger" departSpeed="max"/>
    <trip id="veh180" depart="202.53" from="-453743055" to="1030215635" departLane="best" type="veh_passenger" departSpeed="max"/>
    <trip id="veh181" depart="203.66" from="115561204#0" to="422195693#1" departLane="best" type="veh_passenger" departSpeed="max"/>
    <trip id="veh182" depart="204.78" from="1004737861#1" to="949547103#1" departLane="best" type="veh_passenger"/>
    <trip id="veh183" depart="205.91" from="417235733#1" to="203589978#1" departLane="best" type="veh_passenger"/>
    <trip id="veh184" depart="207.03" from="38359868#1" to="-1068024437#0" departLane="best" type="veh_passenger"/>
    <trip id="veh185" depart="208.16" from="1461641434#1" to="624091858#1" departLane="best" type="veh_passenger"/>
    <trip id="veh186" depart="209.28" from="-723387976#1" to="1462125975" departLane="best" type="veh_passenger" departSpeed="max"/>
    <trip id="veh187" depart="210.41" from="-115684382" to="249079040#1" departLane="best" type="veh_passenger" departSpeed="max"/>
    <trip id="veh188" depart="211.53" from="-266143655#6" to="875149910#1" departLane="best" type="veh_passenger"/>
    <trip id="veh189" depart="212.66" from="1461641422#0" to="-1137637521#0" departLane="best" type="veh_passenger" departSpeed="max"/>
    <trip id="veh190" depart="213.78" from="115561082#0" to="-138652733" departLane="best" type="veh_passenger" departSpeed="max"/>
    <trip id="veh191" depart="214.91" from="-630462798#5" to="154717203#0" departLane="best" type="veh_passenger" departSpeed="max"/>
    <trip id="veh192" depart="216.03" from="-115673859#1" to="417309446#0" departLane="best" type="veh_passenger" departSpeed="max"/>
    <trip id="veh193" depart="217.16" from="1491183954#1" to="154717203#0" departLane="best" type="veh_passenger"/>
    <trip id="veh194" depart="218.29" from="-630462798#2" to="-115561670#1" departLane="best" type="veh_passenger"/>
    <trip id="veh195" depart="219.41" from="115561082#0" to="154717203#0" departLane="best" type="veh_passenger" departSpeed="max"/>
    <trip id="veh196" depart="220.54" from="723312334#3" to="1491183965" departLane="best" type="veh_passenger"/>
    <trip id="veh197" depart="221.66" from="-38375826" to="1409708183" departLane="best" type="veh_passenger"/>
    <trip id="veh198" depart="222.79" from="-115561168#3" to="1491172368#0" departLane="best" type="veh_passenger"/>
    <trip id="veh199" depart="223.91" from="38359895" to="115561673#4" departLane="best" type="veh_passenger"/>
    <trip id="veh200" depart="225.04" from="1491183950#1" to="-1491172357#1" departLane="best" type="veh_passenger"/>
    <trip id="veh201" depart="226.16" from="1491172369#0" to="138652733" departLane="best" type="veh_passenger"/>
    <trip id="veh202" depart="227.29" from="243006968#1" to="115673859#1" departLane="best" type="veh_passenger"/>
    <trip id="veh203" depart="228.41" from="1099670075#0" to="115560897" departLane="best" type="veh_passenger"/>
    <trip id="veh204" depart="229.54" from="417228502#2" to="949547103#1" departLane="best" type="veh_passenger"/>
    <trip id="veh205" depart="230.66" from="115561079" to="-459456564#2" departLane="best" type="veh_passenger" departSpeed="max"/>
    <trip id="veh206" depart="231.79" from="417228502#2" to="-115561669#0" departLane="best" type="veh_passenger"/>
    <trip id="veh207" depart="232.91" from="1033645485" to="630462798#5" departLane="best" type="veh_passenger"/>
    <trip id="veh208" depart="234.04" from="-1125937899#1" to="422195693#1" departLane="best" type="veh_passenger"/>
    <trip id="veh209" depart="235.16" from="-115561179#1" to="203589978#4" departLane="best" type="veh_passenger" departSpeed="max"/>
    <trip id="veh210" depart="236.29" from="723312334#5" to="-108045029#0" departLane="best" type="veh_passenger"/>
    <trip id="veh211" depart="237.41" from="-38393865" to="417235727#2" departLane="best" type="veh_passenger"/>
    <trip id="veh212" depart="238.54" from="243006567#1" to="1461641452#1" departLane="best" type="veh_passenger"/>
    <trip id="veh213" depart="239.66" from="694756702#0" to="1461641436" departLane="best" type="veh_passenger" departSpeed="max"/>
    <trip id="veh214" depart="240.79" from="-38359862" to="38393878#1" departLane="best" type="veh_passenger"/>
    <trip id="veh215" depart="241.91" from="-466365026" to="-38393868#2" departLane="best" type="veh_passenger" departSpeed="max"/>
    <trip id="veh216" depart="243.04" from="-424514808" to="-1473695733" departLane="best" type="veh_passenger" departSpeed="max"/>
    <trip id="veh217" depart="244.16" from="-203589976#3" to="38375823#0" departLane="best" type="veh_passenger"/>
    <trip id="veh218" depart="245.29" from="1104045493#1" to="-1004737860" departLane="best" type="veh_passenger"/>
    <trip id="veh219" depart="246.41" from="723312334#8" to="-1461641457#1" departLane="best" type="veh_passenger"/>
    <trip id="veh220" depart="247.54" from="-875074258" to="694603074#0" departLane="best" type="veh_passenger"/>
    <trip id="veh221" depart="248.66" from="266143655#0" to="547154357#1" departLane="best" type="veh_passenger" departSpeed="max"/>
    <trip id="veh222" depart="249.79" from="114615023#0" to="-114532723#0" departLane="best" type="veh_passenger" departSpeed="max"/>
    <trip id="veh223" depart="250.92" from="-417235700" to="-1461641443#1" departLane="best" type="veh_passenger" departSpeed="max"/>
    <trip id="veh224" depart="252.04" from="-115508249" to="114533140#1" departLane="best" type="veh_passenger"/>
    <trip id="veh225" depart="253.17" from="-422195693#1" to="-38359868#2" departLane="best" type="veh_passenger" departSpeed="max"/>
    <trip id="veh226" depart="254.29" from="-114531734#2" to="-38359868#2" departLane="best" type="veh_passenger" departSpeed="max"/>
    <trip id="veh227" depart="255.42" from="875027029#1" to="1057883200#1" departLane="best" type="veh_passenger"/>
    <trip id="veh228" depart="256.54" from="-677624523#1" to="114531734#2" departLane="best" type="veh_passenger" departSpeed="max"/>
    <trip id="veh229" depart="257.67" from="114532723#0" to="114533140#1" departLane="best" type="veh_passenger" departSpeed="max"/>
    <trip id="veh230" depart="258.79" from="694603074#0" to="-115561175#1" departLane="best" type="veh_passenger"/>
    <trip id="veh231" depart="259.92" from="266157747" to="203589956#1" departLane="best" type="veh_passenger" departSpeed="max"/>
    <trip id="veh232" depart="261.04" from="38359845#1" to="38375823#0" departLane="best" type="veh_passenger"/>
    <trip id="veh233" depart="262.17" from="38393868#0" to="-115560987" departLane="best" type="veh_passenger"/>