<?xml version="1.0" encoding="UTF-8"?>

<!-- generated on 2026-04-12 21:03:16.530782 by Eclipse SUMO osmwebwizard.py v1_26_0+0000-fa7df22d7f1
<configuration>
    <net-file value="C:\Program Files (x86)\Eclipse\Sumo\2026-04-12-21-02-35\osm.net.xml.gz"/>
    <additional-files value="C:\Program Files (x86)\Eclipse\Sumo\2026-04-12-21-02-35\osm_stops.add.xml,C:\Program Files (x86)\Eclipse\Sumo\2026-04-12-21-02-35\osm_pt.rou.xml"/>
    <output-trip-file value="C:\Program Files (x86)\Eclipse\Sumo\2026-04-12-21-02-35\osm.pedestrian.trips.xml"/>
    <route-file value="C:\Program Files (x86)\Eclipse\Sumo\2026-04-12-21-02-35\osm.pedestrian.rou.xml"/>
    <persontrips value="True"/>
    <persontrip.walk-opposite-factor value="0.8"/>
    <prefix value="ped"/>
    <trip-attributes value="modes=&quot;public&quot;"/>
    <vehicle-class value="pedestrian"/>
    <fringe-factor value="2"/>
    <seed value="46"/>
    <end value="600.0"/>
    <insertion-density value="150.0"/>
    <duarouter-weights.tls-penalty value="20"/>
</configuration>
-->

<routes xmlns:xsi="http://www.w3.org/2001/XMLSchema-instance" xsi:noNamespaceSchemaLocation="http://sumo.dlr.de/xsd/routes_file.xsd">
    <vType id="ped_pedestrian" vClass="pedestrian"/>
    <person id="ped0" depart="0.00" type="ped_pedestrian">
        <personTrip from="1420311622#1" to="291929986#2" modes="public"/>
    </person>
    <person id="ped1" depart="0.20" type="ped_pedestrian">
        <personTrip from="1057103252" to="1419952621" modes="public"/>
    </person>
    <person id="ped2" depart="0.41" type="ped_pedestrian">
        <personTrip from="1420311585" to="949113031" modes="public"/>
    </person>
    <person id="ped3" depart="0.61" type="ped_pedestrian">
        <personTrip from="-1071851919#2" to="-1365389583#0" modes="public"/>
    </person>
    <person id="ped4" depart="0.81" type="ped_pedestrian">
        <personTrip from="1104152728#2" to="254747692#1" modes="public"/>
    </person>
    <person id="ped5" depart="1.02" type="ped_pedestrian">
        <personTrip from="264473535#0" to="-38375823#1" modes="public"/>
    </person>
    <person id="ped6" depart="1.22" type="ped_pedestrian">
        <personTrip from="624105521#2" to="1419952639#2" modes="public"/>
    </person>
    <person id="ped7" depart="1.43" type="ped_pedestrian">
        <personTrip from="960082442" to="824134760#0" modes="public"/>
    </person>
    <person id="ped8" depart="1.63" type="ped_pedestrian">
        <personTrip from="-1461641444#1" to="962156531#5" modes="public"/>
    </person>
    <person id="ped9" depart="1.83" type="ped_pedestrian">
        <personTrip from="1419917367#3" to="-694771199" modes="public"/>
    </person>
    <person id="ped10" depart="2.04" type="ped_pedestrian">
        <personTrip from="1419906653#6" to="-1420160206" modes="public"/>
    </person>
    <person id="ped11" depart="2.24" type="ped_pedestrian">
        <personTrip from="1421524923#2" to="1419969591#0" modes="public"/>
    </person>
    <person id="ped12" depart="2.44" type="ped_pedestrian">
        <personTrip from="-1491183952" to="1071851919#1" modes="public"/>
    </person>
    <person id="ped13" depart="2.65" type="ped_pedestrian">
        <personTrip from="1419920939#0" to="1449631255" modes="public"/>
    </person>
    <person id="ped14" depart="2.85" type="ped_pedestrian">
        <personTrip from="1093375246#2" to="-203589978#1" modes="public"/>
    </person>
    <person id="ped15" depart="3.05" type="ped_pedestrian">
        <personTrip from="1243305032#1" to="-1365389583#1" modes="public"/>
    </person>
    <person id="ped16" depart="3.26" type="ped_pedestrian">
        <personTrip from="115611084#1" to="377858000#1" modes="public"/>
    </person>
    <person id="ped17" depart="3.46" type="ped_pedestrian">
        <personTrip from="-944570455#2" to="1104152726#1" modes="public"/>
    </person>
    <person id="ped18" depart="3.67" type="ped_pedestrian">
        <personTrip from="-203589969#0" to="1091830434" modes="public"/>
    </person>
    <person id="ped19" depart="3.87" type="ped_pedestrian">
        <personTrip from="1420311647#1" to="1421493545#1" modes="public"/>
    </person>
    <person id="ped20" depart="4.07" type="ped_pedestrian">
        <personTrip from="1421078874#0" to="-1270699443" modes="public"/>
    </person>
    <person id="ped21" depart="4.28" type="ped_pedestrian">
        <personTrip from="1099672329#1" to="-264337510#8" modes="public"/>
    </person>
    <person id="ped22" depart="4.48" type="ped_pedestrian">
        <personTrip from="1420175858#1" to="1270697030#1" modes="public"/>
    </person>
    <person id="ped23" depart="4.68" type="ped_pedestrian">
        <personTrip from="1421524927#1" to="1420175883" modes="public"/>
    </person>
    <person id="ped24" depart="4.89" type="ped_pedestrian">
        <personTrip from="1420311583#0" to="-960082441#0" modes="public"/>
    </person>
    <person id="ped25" depart="5.09" type="ped_pedestrian">
        <personTrip from="1419969578#0" to="-1270975152#1" modes="public"/>
    </person>
    <person id="ped26" depart="5.30" type="ped_pedestrian">
        <personTrip from="-1473211912" to="291879576" modes="public"/>
    </person>
    <person id="ped27" depart="5.50" type="ped_pedestrian">
        <personTrip from="1421493543#1" to="1004744418#1" modes="public"/>
    </person>
    <person id="ped28" depart="5.70" type="ped_pedestrian">
        <personTrip from="1104152717#1" to="1420311585" modes="public"/>
    </person>
    <person id="ped29" depart="5.91" type="ped_pedestrian">
        <personTrip from="824174714" to="-1069288952#0" modes="public"/>
    </person>
    <person id="ped30" depart="6.11" type="ped_pedestrian">
        <personTrip from="1421078839#1" to="-1096656623#2" modes="public"/>
    </person>
    <person id="ped31" depart="6.31" type="ped_pedestrian">
        <personTrip from="1421524954#1" to="1270697030#1" modes="public"/>
    </person>
    <person id="ped32" depart="6.52" type="ped_pedestrian">
        <personTrip from="-1420160205" to="1285983576#0" modes="public"/>
    </person>
    <person id="ped33" depart="6.72" type="ped_pedestrian">
        <personTrip from="1421078840#1" to="-38375825" modes="public"/>
    </person>
    <person id="ped34" depart="6.92" type="ped_pedestrian">
        <personTrip from="1270700418#3" to="1454361617#2" modes="public"/>
    </person>
    <person id="ped35" depart="7.13" type="ped_pedestrian">
        <personTrip from="249079039#1" to="1421493565#0" modes="public"/>
    </person>
    <person id="ped36" depart="7.33" type="ped_pedestrian">
        <personTrip from="1419917360#1" to="1421493541#1" modes="public"/>
    </person>
    <person id="ped37" depart="7.54" type="ped_pedestrian">
        <personTrip from="-38375823#0" to="1282034518#1" modes="public"/>
    </person>
    <person id="ped38" depart="7.74" type="ped_pedestrian">
        <personTrip from="1104152722#3" to="-38359864#1" modes="public"/>
    </person>
    <person id="ped39" depart="7.94" type="ped_pedestrian">
        <personTrip from="-1096656623#1" to="-1214310714" modes="public"/>
    </person>
    <person id="ped40" depart="8.15" type="ped_pedestrian">
        <personTrip from="962156531#5" to="1282031709" modes="public"/>
    </person>
    <person id="ped41" depart="8.35" type="ped_pedestrian">
        <personTrip from="1104152728#1" to="1421078865#2" modes="public"/>
    </person>
    <person id="ped42" depart="8.55" type="ped_pedestrian">
        <personTrip from="1421493552#0" to="547154357#3" modes="public"/>
    </person>
    <person id="ped43" depart="8.76" type="ped_pedestrian">
        <personTrip from="624105516#1" to="-1243315250#2" modes="public"/>
    </person>
    <person id="ped44" depart="8.96" type="ped_pedestrian">
        <personTrip from="1074642348#6" to="1285983573" modes="public"/>
    </person>
    <person id="ped45" depart="9.16" type="ped_pedestrian">
        <personTrip from="1104152721#1" to="1420175862#3" modes="public"/>
    </person>
    <person id="ped46" depart="9.37" type="ped_pedestrian">
        <personTrip from="1071262614" to="548247853#2" modes="public"/>
    </person>
    <person id="ped47" depart="9.57" type="ped_pedestrian">
        <personTrip from="1110340825#5" to="469673085#0" modes="public"/>
    </person>
    <person id="ped48" depart="9.78" type="ped_pedestrian">
        <personTrip from="671979938#1" to="1421078868#5" modes="public"/>
    </person>
    <person id="ped49" depart="9.98" type="ped_pedestrian">
        <personTrip from="1093375243#1" to="-1243315250#1" modes="public"/>
    </person>
    <person id="ped50" depart="10.18" type="ped_pedestrian">
        <personTrip from="987418409#1" to="687309617" modes="public"/>
    </person>
    <person id="ped51" depart="10.39" type="ped_pedestrian">
        <personTrip from="1419917377#1" to="-1263583826" modes="public"/>
    </person>
    <person id="ped52" depart="10.59" type="ped_pedestrian">
        <personTrip from="1421524941#1" to="1104152721#4" modes="public"/>
    </person>
    <person id="ped53" depart="10.79" type="ped_pedestrian">
        <personTrip from="1419584242#1" to="964879179#5" modes="public"/>
    </person>
    <person id="ped54" depart="11.00" type="ped_pedestrian">
        <personTrip from="624105519#3" to="290182669#1" modes="public"/>
    </person>
    <person id="ped55" depart="11.20" type="ped_pedestrian">
        <personTrip from="1420311640#1" to="1421493553#0" modes="public"/>
    </person>
    <person id="ped56" depart="11.40" type="ped_pedestrian">
        <personTrip from="1421078855#0" to="1421524921#2" modes="public"/>
    </person>
    <person id="ped57" depart="11.61" type="ped_pedestrian">
        <personTrip from="1421493543#5" to="-1473211912" modes="public"/>
    </person>
    <person id="ped58" depart="11.81" type="ped_pedestrian">
        <personTrip from="1066890896#1" to="1420160203" modes="public"/>
    </person>
    <person id="ped59" depart="12.02" type="ped_pedestrian">
        <personTrip from="1420311642#1" to="1421524923#2" modes="public"/>
    </person>
    <person id="ped60" depart="12.22" type="ped_pedestrian">
        <personTrip from="1022114286" to="1243309639#1" modes="public"/>
    </person>
    <person id="ped61" depart="12.42" type="ped_pedestrian">
        <personTrip from="1074642356" to="1420951654#2" modes="public"/>
    </person>
    <person id="ped62" depart="12.63" type="ped_pedestrian">
        <personTrip from="1104042255#0" to="-290406161#0" modes="public"/>
    </person>
    <person id="ped63" depart="12.83" type="ped_pedestrian">
        <personTrip from="1104152703#0" to="987418409#1" modes="public"/>
    </person>
    <person id="ped64" depart="13.03" type="ped_pedestrian">
        <personTrip from="1420311628#1" to="292793285" modes="public"/>
    </person>
    <person id="ped65" depart="13.24" type="ped_pedestrian">
        <personTrip from="1419917378#0" to="1419917371#0" modes="public"/>
    </person>
    <person id="ped66" depart="13.44" type="ped_pedestrian">
        <personTrip from="1093328721" to="1074642356" modes="public"/>
    </person>
    <person id="ped67" depart="13.65" type="ped_pedestrian">
        <personTrip from="624091856#1" to="1419917378#0" modes="public"/>
    </person>
    <person id="ped68" depart="13.85" type="ped_pedestrian">
        <personTrip from="1419952635#1" to="-988510423#1" modes="public"/>
    </person>
    <person id="ped69" depart="14.05" type="ped_pedestrian">
        <personTrip from="1421493535#3" to="1491172369#1" modes="public"/>
    </person>
    <person id="ped70" depart="14.26" type="ped_pedestrian">
        <personTrip from="-253106105#2" to="1421078885#3" modes="public"/>
    </person>
    <person id="ped71" depart="14.46" type="ped_pedestrian">
        <personTrip from="1454361617#1" to="-114532723#0" modes="public"/>
    </person>
    <person id="ped72" depart="14.66" type="ped_pedestrian">
        <personTrip from="170772575" to="264473535#1" modes="public"/>
    </person>
    <person id="ped73" depart="14.87" type="ped_pedestrian">
        <personTrip from="-1263583826" to="1420951643#1" modes="public"/>
    </person>
    <person id="ped74" depart="15.07" type="ped_pedestrian">
        <personTrip from="-1491183946#0" to="1419952624" modes="public"/>
    </person>
    <person id="ped75" depart="15.27" type="ped_pedestrian">
        <personTrip from="-264337510#8" to="1420311585" modes="public"/>
    </person>
    <person id="ped76" depart="15.48" type="ped_pedestrian">
        <personTrip from="1093375251" to="1419917379#7" modes="public"/>
    </person>
    <person id="ped77" depart="15.68" type="ped_pedestrian">
        <personTrip from="1420909166#1" to="1460547076" modes="public"/>
    </person>
    <person id="ped78" depart="15.89" type="ped_pedestrian">
        <personTrip from="1419906653#1" to="-630459460" modes="public"/>
    </person>
    <person id="ped79" depart="16.09" type="ped_pedestrian">
        <personTrip from="114150961#1" to="1419584227#2" modes="public"/>
    </person>
    <person id="ped80" depart="16.29" type="ped_pedestrian">
        <personTrip from="1156213652#1" to="1030215625#2" modes="public"/>
    </person>
    <person id="ped81" depart="16.50" type="ped_pedestrian">
        <personTrip from="964879179#8" to="1254647366" modes="public"/>
    </person>
    <person id="ped82" depart="16.70" type="ped_pedestrian">
        <personTrip from="-1004744418#1" to="1089752636#0" modes="public"/>
    </person>
    <person id="ped83" depart="16.90" type="ped_pedestrian">
        <personTrip from="1421524952#1" to="1421493554#9" modes="public"/>
    </person>
    <person id="ped84" depart="17.11" type="ped_pedestrian">
        <personTrip from="1419917361#1" to="-115561056" modes="public"/>
    </person>
    <person id="ped85" depart="17.31" type="ped_pedestrian">
        <personTrip from="1156138232#0" to="624105521#0" modes="public"/>
    </person>
    <person id="ped86" depart="17.51" type="ped_pedestrian">
        <personTrip from="624105516#1" to="264337510#3" modes="public"/>
    </person>
    <person id="ped87" depart="17.72" type="ped_pedestrian">
        <personTrip from="-453855654" to="38359852#1" modes="public"/>
    </person>
    <person id="ped88" depart="17.92" type="ped_pedestrian">
        <personTrip from="963960414" to="1421524954#1" modes="public"/>
    </person>
    <person id="ped89" depart="18.13" type="ped_pedestrian">
        <personTrip from="1421524953#0" to="-290406164#0" modes="public"/>
    </person>
    <person id="ped90" depart="18.33" type="ped_pedestrian">
        <personTrip from="1069288956#0" to="1419917370#4" modes="public"/>
    </person>
    <person id="ped91" depart="18.53" type="ped_pedestrian">
        <personTrip from="-958527525#0" to="264473533#1" modes="public"/>
    </person>
    <person id="ped92" depart="18.74" type="ped_pedestrian">
        <personTrip from="1282031712#0" to="1421078841" modes="public"/>
    </person>
    <person id="ped93" depart="18.94" type="ped_pedestrian">
        <personTrip from="1282034520#2" to="962156528#1" modes="public"/>
    </person>
    <person id="ped94" depart="19.14" type="ped_pedestrian">
        <personTrip from="1104180857" to="292793282#0" modes="public"/>
    </person>
    <person id="ped95" depart="19.35" type="ped_pedestrian">
        <personTrip from="292793288" to="1420951664#2" modes="public"/>
    </person>
    <person id="ped96" depart="19.55" type="ped_pedestrian">
        <personTrip from="-1270699443" to="824174715" modes="public"/>
    </person>
    <person id="ped97" depart="19.75" type="ped_pedestrian">
        <personTrip from="-694603074#1" to="-1461641445#0" modes="public"/>
    </person>
    <person id="ped98" depart="19.96" type="ped_pedestrian">
        <personTrip from="-1071851919#2" to="293236498#1" modes="public"/>
    </person>
    <person id="ped99" depart="20.16" type="ped_pedestrian">
        <personTrip from="630461674#1" to="1243315255#1" modes="public"/>
    </person>
    <person id="ped100" depart="20.37" type="ped_pedestrian">
        <personTrip from="1243315246#0" to="1421493565#1" modes="public"/>
    </person>
    <person id="ped101" depart="20.57" type="ped_pedestrian">
        <personTrip from="1421493553#0" to="1104152710" modes="public"/>
    </person>
    <person id="ped102" depart="20.77" type="ped_pedestrian">
        <personTrip from="-1157358645" to="-377857999#1" modes="public"/>
    </person>
    <person id="ped103" depart="20.98" type="ped_pedestrian">
        <personTrip from="1093375243#1" to="-1066053875#0" modes="public"/>
    </person>
    <person id="ped104" depart="21.18" type="ped_pedestrian">
        <personTrip from="1421493554#5" to="1282034518#1" modes="public"/>
    </person>
    <person id="ped105" depart="21.38" type="ped_pedestrian">
        <personTrip from="1419952638#1" to="1093097873" modes="public"/>
    </person>
    <person id="ped106" depart="21.59" type="ped_pedestrian">
        <personTrip from="1270697028" to="1421493536#1" modes="public"/>
    </person>
    <person id="ped107" depart="21.79" type="ped_pedestrian">
        <personTrip from="377858000#0" to="264337510#8" modes="public"/>
    </person>
    <person id="ped108" depart="22.00" type="ped_pedestrian">
        <personTrip from="1419952611#2" to="266143622#0" modes="public"/>
    </person>
    <person id="ped109" depart="22.20" type="ped_pedestrian">
        <personTrip from="1104152710" to="1420951651" modes="public"/>
    </person>
    <person id="ped110" depart="22.40" type="ped_pedestrian">
        <personTrip from="1104042255#1" to="469673085#1" modes="public"/>
    </person>
    <person id="ped111" depart="22.61" type="ped_pedestrian">
        <personTrip from="1282031712#0" to="-1104044003" modes="public"/>
    </person>
    <person id="ped112" depart="22.81" type="ped_pedestrian">
        <personTrip from="1421524952#1" to="-687309616" modes="public"/>
    </person>
    <person id="ped113" depart="23.01" type="ped_pedestrian">
        <personTrip from="266143635#2" to="264337510#4" modes="public"/>
    </person>
    <person id="ped114" depart="23.22" type="ped_pedestrian">
        <personTrip from="348789338" to="-1243315250#0" modes="public"/>
    </person>
    <person id="ped115" depart="23.42" type="ped_pedestrian">
        <personTrip from="-108040331#1" to="1419723745#1" modes="public"/>
    </person>
    <person id="ped116" depart="23.62" type="ped_pedestrian">
        <personTrip from="1420311629#0" to="-1104044000#0" modes="public"/>
    </person>
    <person id="ped117" depart="23.83" type="ped_pedestrian">
        <personTrip from="1421078875#1" to="1270697026#3" modes="public"/>
    </person>
    <person id="ped118" depart="24.03" type="ped_pedestrian">
        <personTrip from="-293236498#1" to="1420951662#0" modes="public"/>
    </person>
    <person id="ped119" depart="24.24" type="ped_pedestrian">
        <personTrip from="1419584236#1" to="1263583831" modes="public"/>
    </person>
    <person id="ped120" depart="24.44" type="ped_pedestrian">
        <personTrip from="958484852" to="1420311587#1" modes="public"/>
    </person>
    <person id="ped121" depart="24.64" type="ped_pedestrian">
        <personTrip from="1263583823" to="1419969590#1" modes="public"/>
    </person>
    <person id="ped122" depart="24.85" type="ped_pedestrian">
        <personTrip from="1421078882#3" to="958484854#0" modes="public"/>
    </person>
    <person id="ped123" depart="25.05" type="ped_pedestrian">
        <personTrip from="1421078868#6" to="-203589978#2" modes="public"/>
    </person>
    <person id="ped124" depart="25.25" type="ped_pedestrian">
        <personTrip from="1461641449#0" to="1419952635#4" modes="public"/>
    </person>
    <person id="ped125" depart="25.46" type="ped_pedestrian">
        <personTrip from="-958527517" to="1421493539#1" modes="public"/>
    </person>
    <person id="ped126" depart="25.66" type="ped_pedestrian">
        <personTrip from="366463596#1" to="1421493568#1" modes="public"/>
    </person>
    <person id="ped127" depart="25.86" type="ped_pedestrian">
        <personTrip from="958484854#0" to="-694766183#0" modes="public"/>
    </person>
    <person id="ped128" depart="26.07" type="ped_pedestrian">
        <personTrip from="1243309638" to="1419969582#0" modes="public"/>
    </person>
    <person id="ped129" depart="26.27" type="ped_pedestrian">
        <personTrip from="264473519#0" to="1421524940#1" modes="public"/>
    </person>
    <person id="ped130" depart="26.48" type="ped_pedestrian">
        <personTrip from="1419952610#0" to="1024481473#0" modes="public"/>
    </person>
    <person id="ped131" depart="26.68" type="ped_pedestrian">
        <personTrip from="1419917380#3" to="694766180" modes="public"/>
    </person>
    <person id="ped132" depart="26.88" type="ped_pedestrian">
        <personTrip from="293418340" to="1089752636#2" modes="public"/>
    </person>
    <person id="ped133" depart="27.09" type="ped_pedestrian">
        <personTrip from="624091858#2" to="1420175869#0" modes="public"/>
    </person>
    <person id="ped134" depart="27.29" type="ped_pedestrian">
        <personTrip from="1096264170#1" to="1472214912" modes="public"/>
    </person>
    <person id="ped135" depart="27.49" type="ped_pedestrian">
        <personTrip from="1420175862#1" to="-1491172368#0" modes="public"/>
    </person>
    <person id="ped136" depart="27.70" type="ped_pedestrian">
        <personTrip from="1419906606#1" to="1420311660" modes="public"/>
    </person>
    <person id="ped137" depart="27.90" type="ped_pedestrian">
        <personTrip from="1419201813#1" to="1420175890#1" modes="public"/>
    </person>
    <person id="ped138" depart="28.10" type="ped_pedestrian">
        <personTrip from="1421524956#1" to="624105517#4" modes="public"/>
    </person>
    <person id="ped139" depart="28.31" type="ped_pedestrian">
        <personTrip from="1420175867" to="-417309446#2" modes="public"/>
    </person>
    <person id="ped140" depart="28.51" type="ped_pedestrian">
        <personTrip from="962156531#4" to="1491183966#0" modes="public"/>
    </person>
    <person id="ped141" depart="28.72" type="ped_pedestrian">
        <personTrip from="1419917364#0" to="1419952614#2" modes="public"/>
    </person>
    <person id="ped142" depart="28.92" type="ped_pedestrian">
        <personTrip from="958527531" to="-1243315246#0" modes="public"/>
    </person>
    <person id="ped143" depart="29.12" type="ped_pedestrian">
        <personTrip from="1420951664#1" to="1419920938#2" modes="public"/>
    </person>
    <person id="ped144" depart="29.33" type="ped_pedestrian">
        <personTrip from="971953887" to="-962156528#1" modes="public"/>
    </person>
    <person id="ped145" depart="29.53" type="ped_pedestrian">
        <personTrip from="1243315251" to="290407988#1" modes="public"/>
    </person>
    <person id="ped146" depart="29.73" type="ped_pedestrian">
        <personTrip from="1104067887" to="1419906650#3" modes="public"/>
    </person>
    <person id="ped147" depart="29.94" type="ped_pedestrian">
        <personTrip from="-1491183952" to="959741635" modes="public"/>
    </person>
    <person id="ped148" depart="30.14" type="ped_pedestrian">
        <personTrip from="1419917379#14" to="1188652710#5" modes="public"/>
    </person>
    <person id="ped149" depart="30.34" type="ped_pedestrian">
        <personTrip from="1421493550#1" to="1420311582#1" modes="public"/>
    </person>
    <person id="ped150" depart="30.55" type="ped_pedestrian">
        <personTrip from="1096264170#0" to="971953887" modes="public"/>
    </person>
    <person id="ped151" depart="30.75" type="ped_pedestrian">
        <personTrip from="1421078868#1" to="1188652710#4" modes="public"/>
    </person>
    <person id="ped152" depart="30.96" type="ped_pedestrian">
        <personTrip from="1030215632" to="290407988#0" modes="public"/>
    </person>
    <person id="ped153" depart="31.16" type="ped_pedestrian">
        <personTrip from="1419952609#2" to="1089752626#1" modes="public"/>
    </person>
    <person id="ped154" depart="31.36" type="ped_pedestrian">
        <personTrip from="-290406161#1" to="290403307#0" modes="public"/>
    </person>
    <person id="ped155" depart="31.57" type="ped_pedestrian">
        <personTrip from="-410529595#1" to="1421493543#8" modes="public"/>
    </person>
    <person id="ped156" depart="31.77" type="ped_pedestrian">
        <personTrip from="1419917373#1" to="1029697144" modes="public"/>
    </person>
    <person id="ped157" depart="31.97" type="ped_pedestrian">
        <personTrip from="1419917379#8" to="-1071851919#2" modes="public"/>
    </person>
    <person id="ped158" depart="32.18" type="ped_pedestrian">
        <personTrip from="1419906654#1" to="-1089752626#0" modes="public"/>
    </person>
    <person id="ped159" depart="32.38" type="ped_pedestrian">
        <personTrip from="1414598754#1" to="-1071262615#1" modes="public"/>
    </person>
    <person id="ped160" depart="32.59" type="ped_pedestrian">
        <personTrip from="253106102#2" to="1421524952#1" modes="public"/>
    </person>
    <person id="ped161" depart="32.79" type="ped_pedestrian">
        <personTrip from="-264337510#11" to="958940839" modes="public"/>
    </person>
    <person id="ped162" depart="32.99" type="ped_pedestrian">
        <personTrip from="1419917360#0" to="1420311635#0" modes="public"/>
    </person>
    <person id="ped163" depart="33.20" type="ped_pedestrian">
        <personTrip from="416925020" to="-87494508#4" modes="public"/>
    </person>
    <person id="ped164" depart="33.40" type="ped_pedestrian">
        <personTrip from="1461641387" to="1419584227#1" modes="public"/>
    </person>
    <person id="ped165" depart="33.60" type="ped_pedestrian">
        <personTrip from="-1290319675#1" to="1104152725" modes="public"/>
    </person>
    <person id="ped166" depart="33.81" type="ped_pedestrian">
        <personTrip from="-87494508#4" to="469673083#1" modes="public"/>
    </person>
    <person id="ped167" depart="34.01" type="ped_pedestrian">
        <personTrip from="292793282#1" to="-203589978#3" modes="public"/>
    </person>
    <person id="ped168" depart="34.21" type="ped_pedestrian">
        <personTrip from="958944815" to="1421524944#1" modes="public"/>
    </person>
    <person id="ped169" depart="34.42" type="ped_pedestrian">
        <personTrip from="1421524960" to="184745185#2" modes="public"/>
    </person>
    <person id="ped170" depart="34.62" type="ped_pedestrian">
        <personTrip from="1419952614#9" to="958484849" modes="public"/>
    </person>
    <person id="ped171" depart="34.83" type="ped_pedestrian">
        <personTrip from="1104152704" to="38393993#0" modes="public"/>
    </person>
    <person id="ped172" depart="35.03" type="ped_pedestrian">
        <personTrip from="1419969577#2" to="1419201813#1" modes="public"/>
    </person>
    <person id="ped173" depart="35.23" type="ped_pedestrian">
        <personTrip from="433002960#2" to="-38359850#1" modes="public"/>
    </person>
    <person id="ped174" depart="35.44" type="ped_pedestrian">
        <personTrip from="1419906653#4" to="1071262614" modes="public"/>
    </person>
    <person id="ped175" depart="35.64" type="ped_pedestrian">
        <personTrip from="377858000#2" to="975562524" modes="public"/>
    </person>
    <person id="ped176" depart="35.84" type="ped_pedestrian">
        <personTrip from="1421493570#1" to="1421493541#0" modes="public"/>
    </person>
    <person id="ped177" depart="36.05" type="ped_pedestrian">
        <personTrip from="1420311654#1" to="1419201813#2" modes="public"/>
    </person>
    <person id="ped178" depart="36.25" type="ped_pedestrian">
        <personTrip from="1419952611#3" to="1421078871#0" modes="public"/>
    </person>
    <person id="ped179" depart="36.45" type="ped_pedestrian">
        <personTrip from="624091856#4" to="-264337510#5" modes="public"/>
    </person>
    <person id="ped180" depart="36.66" type="ped_pedestrian">
        <personTrip from="1069288948#0" to="264473526#0" modes="public"/>
    </person>
    <person id="ped181" depart="36.86" type="ped_pedestrian">
        <personTrip from="1421493522#1" to="-254747692#0" modes="public"/>
    </person>
    <person id="ped182" depart="37.07" type="ped_pedestrian">
        <personTrip from="1421078860#0" to="-1420175875" modes="public"/>
    </person>
    <person id="ped183" depart="37.27" type="ped_pedestrian">
        <personTrip from="-108899907#1" to="291878857#2" modes="public"/>
    </person>
    <person id="ped184" depart="37.47" type="ped_pedestrian">
        <personTrip from="1421078844#1" to="1419952617#1" modes="public"/>
    </person>
    <person id="ped185" depart="37.68" type="ped_pedestrian">
        <personTrip from="962156531#1" to="1420311664" modes="public"/>
    </person>
    <person id="ped186" depart="37.88" type="ped_pedestrian">
        <personTrip from="1420951655#1" to="1419584229" modes="public"/>
    </person>
    <person id="ped187" depart="38.08" type="ped_pedestrian">
        <personTrip from="1420951656#0" to="944570452" modes="public"/>
    </person>
    <person id="ped188" depart="38.29" type="ped_pedestrian">
        <personTrip from="1421524921#1" to="1461641461" modes="public"/>
    </person>
    <person id="ped189" depart="38.49" type="ped_pedestrian">
        <personTrip from="975562524" to="959741633#1" modes="public"/>
    </person>
    <person id="ped190" depart="38.69" type="ped_pedestrian">
        <personTrip from="1066897499" to="264337510#11" modes="public"/>
    </person>
    <person id="ped191" depart="38.90" type="ped_pedestrian">
        <personTrip from="987418407#1" to="1421078850" modes="public"/>
    </person>
    <person id="ped192" depart="39.10" type="ped_pedestrian">
        <personTrip from="-1420951657#1" to="624105516#2" modes="public"/>
    </person>