<?xml version="1.0" encoding="UTF-8"?>

<!-- generated on 2026-04-12 21:02:52.285901 by Eclipse SUMO osmwebwizard.py v1_26_0+0000-fa7df22d7f1
<configuration>
    <net-file value="C:\Program Files (x86)\Eclipse\Sumo\2026-04-12-21-02-35\osm.net.xml.gz"/>
    <ptlines-file value="C:\Program Files (x86)\Eclipse\Sumo\2026-04-12-21-02-35\osm_ptlines.xml"/>
    <ptstops-file value="C:\Program Files (x86)\Eclipse\Sumo\2026-04-12-21-02-35\osm_stops.add.xml"/>
    <output-file value="C:\Program Files (x86)\Eclipse\Sumo\2026-04-12-21-02-35\osm_pt.rou.xml"/>
    <stopinfos-file value="C:\Program Files (x86)\Eclipse\Sumo\2026-04-12-21-02-35\stopinfos.xml"/>
    <routes-file value="C:\Program Files (x86)\Eclipse\Sumo\2026-04-12-21-02-35\vehroutes.xml"/>
    <trips-file value="C:\Program Files (x86)\Eclipse\Sumo\2026-04-12-21-02-35\trips.trips.xml"/>
    <end value="600.0"/>
    <min-stops value="0"/>
    <extend-to-fringe value="True"/>
    <random-begin value="True"/>
    <seed value="42"/>
    <ignore-errors value="True"/>
    <vtype-prefix value="pt_"/>
    <verbose value="True"/>
</configuration>
-->

<routes xmlns:xsi="http://www.w3.org/2001/XMLSchema-instance" xsi:noNamespaceSchemaLocation="http://sumo.dlr.de/xsd/routes_file.xsd">
    <vType id="pt_bus" vClass="bus"/>
    <vType id="pt_tram" vClass="tram"/>
    <vType id="pt_train" vClass="rail"/>
    <vType id="pt_subway" vClass="subway"/>
    <vType id="pt_light_rail" vClass="rail_urban"/>
    <vType id="pt_monorail" vClass="rail_urban"/>
    <vType id="pt_trolleybus" vClass="bus"/>
    <vType id="pt_minibus" vClass="bus"/>
    <vType id="pt_share_taxi" vClass="taxi"/>
    <vType id="pt_aerialway" vClass="cable_car" length="2.5" width="2" personCapacity="4"/>
    <vType id="pt_ferry" vClass="ship"/>
</routes>
