<?xml version='1.0' encoding='UTF-8'?>
<routes>
    <vType id="bicycle_p0_b__bicycle" vClass="bicycle" />
    <vehicle id="bicycle_p0_b_0" type="bicycle_p0_b__bicycle" depart="0.00" departLane="best">
        <route edges="116457542#3 243006565#1 115672673#0 115672673#1 243006968#0 243006968#1 -38393992#2 -1099670076#1 1099670075#0 38359851#1 1423673546 -824174714 824174715 38359865#2 1423673548#0 38359852#0 38359852#1 38359852#2 694603075#3 694603075#4 694603077#0 694603077#1 1125937900#0 1125937900#1 38393860#0 725287636#0 725287636#1 725287636#2 725287635#3 725287635#4 725287635#5 1057888578" />
    </vehicle>
    <vehicle id="bicycle_p0_b_1" type="bicycle_p0_b__bicycle" depart="3.59" departLane="best" departSpeed="max">
        <route edges="-254747698 203589976#0 203589976#1 203589976#3 203589976#4 203589976#6 824158743#1 1491172369#0 1491172369#1 1104045493#1 1428233169 694603073 694603075#1 694603076#0 694603076#1 1423673547#0 1423673547#1 38359865#0 38359865#1 38359865#2 1491183952 1068837568 1491183954#0 1491183954#1 1491183954#2 1461641447 1491183956 1491183957 1491183958#1 38359850#1 1491183959 1491183960 1068837569 203589972#2 38655903#0 38655903#1 38655903#2 38655903#3 -38359857#2 -294747092" />
    </vehicle>
    <vehicle id="bicycle_p0_b_2" type="bicycle_p0_b__bicycle" depart="7.17" departLane="best">
        <route edges="182017479#4 911225806#0 944570453 112602521#1 -875074258 694609277#0 38359851#1 1423673546 -824174714 824174715 38359865#2 1423673548#0 38359852#0 38359852#1 38359852#2 694603075#3 694603075#4 694603077#0 694603077#1 1125937900#0 1125937900#1 38393860#0 725287636#0 725287636#1 725287636#2 725287635#3 725287635#4 725287635#5 1057888578 87494509#0 87494509#1 87494509#2 87494509#5 87494509#6 115561170#0 115561170#1 115561170#2 -38691386#5 163099350#0" />
    </vehicle>
    <vehicle id="bicycle_p0_b_3" type="bicycle_p0_b__bicycle" depart="10.76" departLane="best">
        <route edges="547154355#3 -1491172358 -243006970#1 -1491172357#1 -99682907#3 1461641434#1 1461641436 -38393993#0 203589976#0 203589976#1 377857998#1 -115561168#1" />
    </vehicle>
    <vehicle id="bicycle_p0_b_4" type="bicycle_p0_b__bicycle" depart="14.34" departLane="best">
        <route edges="87494509#1 87494509#2 87494509#5 87494509#6 -38691390#4 965875491#0 965875491#1 422195700 -1068024437#0" />
    </vehicle>
    <vehicle id="bicycle_p0_b_5" type="bicycle_p0_b__bicycle" depart="17.93" departLane="best">
        <route edges="-1461641433#0 -1461641457#1 -1461641457#0 -1461641458#3 -960082441#3 -960082441#2 -960082441#1 -960082440 291878855#1 1461641455 291878856#0 -115561168#3 -115561168#2 -115561168#1 -1491172374 410529592#1 1461641452#1 988510421 1461641451#0 1461641451#1 410529595#0 410529595#1 725287636#0 725287636#1 725287636#2 725287635#3 164415954#0 164415954#1 164415954#2 1461641450#1 1461641450#2 1461641450#3 266143610#4 266143610#5 266143651#0 -953598129#2 -953598129#1 -1089752630#0 -115560946#2 -115560946#1 -115560946#0 115560947#1" />
    </vehicle>
    <vehicle id="bicycle_p0_b_6" type="bicycle_p0_b__bicycle" depart="21.52" departLane="best">
        <route edges="-1243315247#2 -1243315247#1 115514116#2 203589968#4 203589964#0 824174716 1423662169#0 548247853#2 1461641388 249079039#0 249079039#1 -116457542#4 -116457542#2 -116457542#1" />
    </vehicle>
    <vehicle id="bicycle_p0_b_7" type="bicycle_p0_b__bicycle" depart="25.10" departLane="best">
        <route edges="38393992#3 -1491172360#1 -38393868#2 -38393868#1 -38393868#0 -1491172361#2 38359868#1 1491183966#0 1491183966#1 410529592#1 1461641452#1 988510421 1491172372#0 1491172372#1 264484544#0 1270975152#1" />
    </vehicle>
    <vehicle id="bicycle_p0_b_8" type="bicycle_p0_b__bicycle" depart="28.69" departLane="best">
        <route edges="290401172 1093097875#0 1093097875#1 -115674753#2 -115674753#1 38375826 -38375826 -1004744419 -875071472 -1087007031 -875070295 -875070294 -1004744421 -38393865 -1125937899#1 -1125937899#0 -1214310714 -875074258 694609277#0 1099670074#1 1309272820 38393992#1 38393992#3 1461641434#1 1461641436 1461641435 184745185#0 184745185#1 184745185#2 184745185#3 184745185#5 1461641458#1 1461641458#2 1461641458#3 1461641457#0 1461641457#1 970749953#0 970749953#1 1022107860#3 1022107860#4" />
    </vehicle>
    <vehicle id="bicycle_p0_b_9" type="bicycle_p0_b__bicycle" depart="32.27" departLane="best">
        <route edges="266143655#7 266143655#8 266143655#9 266143655#10 -203589969#3 -203589969#2 -203589969#1 -203589969#0 -1420160203 203589949#3 1420160204 1461641460 203589962#0 203589962#1 410529592#1 1461641452#1 988510421 1461641451#0 1461641451#1 410529595#0 410529595#1 410552443 203589973#1 203589973#3" />
    </vehicle>
    <vehicle id="bicycle_p0_b_10" type="bicycle_p0_b__bicycle" depart="35.86" departLane="best">
        <route edges="417235727#3 266143645#1 266143645#3 -87494509#3 -87494509#1 -87494509#0 -1057888578 725287635#6 725287635#1 203589970#0 203589970#1 203589970#2 203589970#3 203589970#4 203589949#1 203589949#2 203589949#3 1420160204 1461641460 203589962#0 203589962#1 -1461641453#0 -1491183966#0 -38359868#2 1491172361#1 38393868#0 38393868#1 38393868#2 1491172360#0 99682907#2 1491183943#1 1491183944#0 1491183944#1 1491183944#2 1491183944#3 -683745965#1 254747692#0 -1473211913" />
    </vehicle>
    <vehicle id="bicycle_p0_b_11" type="bicycle_p0_b__bicycle" depart="39.45" departLane="best">
        <route edges="931220687#1 931220687#2 1125927213#0 115561161#0 115561161#1 372020013#0 372020013#1 372020014 115560947#0 115560947#1 115560947#2 -1068024437#1 -422195700 -965875491#1 -965875491#0 38691390#3 -87494509#6 -87494509#5 723313369#1 965875489#0" />
    </vehicle>
    <vehicle id="bicycle_p0_b_12" type="bicycle_p0_b__bicycle" depart="43.03" departLane="best">
        <route edges="-1093097875#1 -1093097875#0 -290401172 -1093097874 -115560988#2 -115560988#1 1004744417 1004744416#0 1004737861#1 38359845#0 38359845#1 38655903#0 38655903#1 38655903#2 38655903#3 417114094#0 417114094#1 38375846#0 466365029 -115561670#0" />
    </vehicle>
    <vehicle id="bicycle_p0_b_13" type="bicycle_p0_b__bicycle" depart="46.62" departLane="best">
        <route edges="87494508#4 87494508#5 1461641449#0 1461641449#1 1462125970 1030215636 1030215635 694603075#4 694603075#5 694603075#6 694603072 -1428233169 -1104045493#1 -1491172369#1 -1491172369#0 -824158743#2 1491172361#1 38393868#0 38393868#1 38393868#2 1491172360#0 99682907#2 1491172357#1 243006970#1 1491172358 1491172365#1 1491172365#2 1419201815#1 1419201815#3" />
    </vehicle>
    <vehicle id="bicycle_p0_b_14" type="bicycle_p0_b__bicycle" depart="50.20" departLane="best" departSpeed="max">
        <route edges="266157747 203589978#2 203589978#3 203589978#4 203589978#6 1461641444#0 417309446#0 417309446#2 646265608 170772575 1004737860 545148171#0 -1004744416#1 -1004744417 -38375826 -1004744419 -875071472 -1087007031 -875070295 -875070294 -1004744421 -38393865 -1125937899#1 -1125937899#0 -1214310714 -875074258 694609277#0 1099670074#1 1309272820 38393992#1 38393992#3 99682907#2 1491183943#1 1491183944#0 1491183944#1 1491183944#2 1491183944#3 -683745965#1 254747692#0 254747692#1" />
    </vehicle>
    <vehicle id="bicycle_p0_b_15" type="bicycle_p0_b__bicycle" depart="53.79" departLane="best">
        <route edges="-630459458#1 -630459460 266143650#2 115561175#1 1423673547#0 1423673547#1 38359865#0 266143653 824174714 -1423673546 -203589964#0 38375839#1 1243309639#1 1243309640#1 1243309640#2" />
    </vehicle>
    <vehicle id="bicycle_p0_b_16" type="bicycle_p0_b__bicycle" depart="57.38" departLane="best">
        <route edges="372020013#0 372020013#1 372020014 115560947#0 115560947#1 115560947#2 -1068024437#1 -422195700 -965875491#1 -965875491#0 38691390#3 -87494509#6 -87494509#5 -87494509#3 -87494509#1 -87494509#0 -1057888578 725287635#6 725287635#1 203589970#0 203589970#1 203589970#2 203589970#3 203589970#4 203589949#1 203589949#2 203589949#3 1420160204 1461641460 203589962#0 203589962#1 1461641459#1 115561168#1 115561168#2 115561168#3 115561168#4 115561168#5 115561168#6 1428300586#1" />
    </vehicle>
    <vehicle id="bicycle_p0_b_17" type="bicycle_p0_b__bicycle" depart="60.96" departLane="best">
        <route edges="38393992#3 -1491172360#1 -38393868#2 -38393868#1 -38393868#0 -1491172361#2 38359868#1 1491183966#0 1491183966#1 -203589962#1 -203589962#0 -1461641460 -1420160204 203589949#4 203589949#5 203589949#1 -1420160202 -108899907#2 -108899907#1 108636964#0 108636964#1 1270697019" />
    </vehicle>
    <vehicle id="bicycle_p0_b_18" type="bicycle_p0_b__bicycle" depart="64.55" departLane="best">
        <route edges="1491172359#0 -1491172360#1 -38393868#2 -38393868#1 -38393868#0 -1491172361#2 38359868#1 1491183966#0 1491183966#1 410529592#1 1461641452#1 988510421 1461641451#0 1461641451#1 410529595#0 410529595#1 725287636#0 725287636#1 725287636#2 725287635#3 725287635#4 725287635#5 725287635#6 -108045029#1 -108045029#0" />
    </vehicle>
    <vehicle id="bicycle_p0_b_19" type="bicycle_p0_b__bicycle" depart="68.13" departLane="best">
        <route edges="-1461641458#3 -1461641458#2 -293236498#1 -694766186#2 -694766184#2" />
    </vehicle>
    <vehicle id="bicycle_p0_b_20" type="bicycle_p0_b__bicycle" depart="71.72" departLane="best">
        <route edges="108686154#1 -87494509#0 -1057888578 725287635#6 725287635#1 725287635#2 -725287636#2 -725287636#1 -725287636#0 -38393860#0 -1125937900#1 -1125937900#0 694603078#0 694603078#1 694603075#6 694603072 -1428233169 -1104045493#1 108040331#1 1491172370#0 243007176#1 1491172366#1 38393878#0 38393878#1 243006967#0 243006967#1 243006566#0 243006566#1 243006566#3 243006566#4 547154357#0 1104042255#0 -377858000#3 -377858000#2 -377858000#1" />
    </vehicle>
    <vehicle id="bicycle_p0_b_21" type="bicycle_p0_b__bicycle" depart="75.31" departLane="best">
        <route edges="115684389#1 115684389#2 1491183962#1 1068837569 203589972#2 38655903#0 38655903#1 38655903#2 38655903#3 417114094#0 417114094#1 417192337#0 417192337#1 417192337#2 38691389#0 38691389#1 931378515#0 931378515#1 417235733#0 417235733#1 101152389 1479274894 1473695733 1033645489#0 1491183951 38359866#0 38359866#1 -1022114283 1022114281" />
    </vehicle>
    <vehicle id="bicycle_p0_b_22" type="bicycle_p0_b__bicycle" depart="78.89" departLane="best">
        <route edges="-253106104#0 -253106105#3 -253106105#2 -253106105#1 -253106105#0 -203589969#3 -203589969#2 -203589969#1 -203589969#0 -1420160203 203589949#3 1420160204 1461641460 203589962#0 203589962#1 1461641459#1 115561168#1 115561168#2 115561168#3 -291878856#0 -1461641455 -291878855#1 -291878855#0 -1461641456#1 -1461641456#0 1461641457#0 1461641457#1 1461641433#0 1461641433#1 1461641433#2 1461641433#3 103426225#0 103426225#1 103426225#2 103426225#4 103426225#6 1026606158 875149910#1" />
    </vehicle>
    <vehicle id="bicycle_p0_b_23" type="bicycle_p0_b__bicycle" depart="82.48" departLane="best" departSpeed="max">
        <route edges="1243315246#0 -1243315247#2 -1243315247#1 -115514116#1 1243315253#1 -1243315252#1 -1243315252#0 1243315250#2 -824174714 824174715 38359865#2 1423673548#0 38359852#0 38359852#1 38359852#2 694603075#3 694603075#4 694603077#0 694603077#1 1125937900#0 1125937900#1 38393860#0 725287636#0 203589973#1 203589973#3 203589973#4 1420160205" />
    </vehicle>
    <vehicle id="bicycle_p0_b_24" type="bicycle_p0_b__bicycle" depart="86.06" departLane="best" departSpeed="max">
        <route edges="-1263583828#1 -1263583828#0 1263583826 1479274894 1473695733 694603074#0 694603074#2 694603074#3 1462125970 1030215636 1030215635 694603075#4 694603077#0 694603077#1 1125937900#0 1125937900#1 38393860#0 725287636#0 203589973#1 203589973#3 203589973#4 1420160205 203589949#5 203589949#1 203589949#2 1420160203 203589969#0 203589969#1 203589969#2 203589969#3 253106105#0 253106105#1 253106105#2 253106105#3" />
    </vehicle>
    <vehicle id="bicycle_p0_b_25" type="bicycle_p0_b__bicycle" depart="89.65" departLane="best" departSpeed="max">
        <route edges="-1243315255#1 -1243315255#0 115514116#0 1243315253#1 -1243315252#1 -1243315252#0 1243315250#2 -824174714 824174715 38359865#2 1423673548#0 38359852#0 38359852#1 38359852#2 694603075#3 694603075#4 694603077#0 694603077#1 1125937900#0 1125937900#1 38393860#0 725287636#0 725287636#1 725287636#2 725287635#3 725287635#4 725287635#5 1057888578 87494509#0 87494509#1 87494509#2 87494509#5 87494509#6 1028732094#0 -417235727#3 -417235727#2 -417235727#1 1125927214#2 1125927214#3 116625957#0 116625957#1 459456563 459456564#0 459456564#1 459456564#2 1026368162#0 1026368162#1 1026541486" />
    </vehicle>
    <vehicle id="bicycle_p0_b_26" type="bicycle_p0_b__bicycle" depart="93.24" departLane="best" departSpeed="max">
        <route edges="979318795 266143651#2 266143651#3 723313369#4 723313369#5 723313369#6 138652733 723313368 38359894 723313398 1491183950#1 -1033645484 -1033645486#0 -38359862 694603074#0 694603074#2 694603074#3 1462125970 1030215636 1030215635 694603075#4 694603075#5 694603075#6 694603075#7 694603075#1 694603076#0 694603076#1 1423673547#0 1423673547#1 38359865#0 266143653 824174714 -1423673546 824174716 1423662169#0 548247853#2 -547266341" />
    </vehicle>
    <vehicle id="bicycle_p0_b_27" type="bicycle_p0_b__bicycle" depart="96.82" departLane="best" departSpeed="max">
        <route edges="38359857#0 38359857#1 38359857#2 417114094#0 417114094#1 417192337#0 417192337#1 417192337#2 38691389#0 38691389#1 931378515#0 931378515#1 417235733#0 417235733#1 101152389 1479274894 1473695733 694603074#0 694603074#2 694603074#3 1462125970 1030215636 1030215635 694603075#4 694603075#5 694603075#6 694603075#7 694603075#1 694603076#0 694603076#1 1423673547#0 1423673547#1 38359865#0 266143653 824174714 -1243315250#2 1243315252#0 1243315252#1 -1243315253#1 -115514116#0 307025078" />
    </vehicle>
    <vehicle id="bicycle_p0_b_28" type="bicycle_p0_b__bicycle" depart="100.41" departLane="best">
        <route edges="1461641461 108899907#1 108899907#2 1420160202 203589949#2 203589949#3 1420160204 1461641460 203589962#0 203589962#1 410529592#1 1461641452#1 988510421 1461641451#0 1461641451#1 410529595#0 410529595#1 725287636#0 725287636#1 725287636#2 725287635#3 164415954#0 164415954#1 164415954#2 1461641450#1 1461641450#2 1461641450#3 266143610#4 266143610#5 266143651#0 -953598129#2 -953598129#1 -1089752630#0 -115560946#2 -115560946#1 -1068229845" />
    </vehicle>
    <vehicle id="bicycle_p0_b_29" type="bicycle_p0_b__bicycle" depart="103.99" departLane="best">
        <route edges="377858000#2 377858000#3 -1104042255#0 547154357#1 116457542#1 116457542#2 348587225#1 115560899#0 115560899#1 243006970#1 1491172358 -547154355#3 -547154355#2" />
    </vehicle>
    <vehicle id="bicycle_p0_b_30" type="bicycle_p0_b__bicycle" depart="107.58" departLane="best" departSpeed="max">
        <route edges="-1422795534 -1422795532 -38375844#3 -38375844#2 1004737861#1 38359845#0 38359845#1 38655903#0 38655903#1 38655903#2 38655903#3 417114094#0 417114094#1 417192337#0 417192337#1 417192337#2 38691389#0 38691389#1 931378515#0" />
    </vehicle>
    <vehicle id="bicycle_p0_b_31" type="bicycle_p0_b__bicycle" depart="111.17" departLane="best">
        <route edges="417235727#3 -1028732094#1 115561170#0 115561170#1 115561170#2 38691386#6 38691386#8 -931424771#2" />
    </vehicle>
    <vehicle id="bicycle_p0_b_32" type="bicycle_p0_b__bicycle" depart="114.75" departLane="best">
        <route edges="-1243315255#0 115514116#0 1243315253#1 -1243315252#1 -1243315252#0 1243315250#2 -824174714 824174715 38359865#2 1423673548#0 38359852#0 38359852#1 38359852#2 694603075#3 694603075#4 694603077#0 694603077#1 1125937900#0 1125937900#1 38393860#0 725287636#0 108646023#0 108646023#1 108646023#3 1461641449#0 1030215625#0 1030215625#1 1030215629" />
    </vehicle>
    <vehicle id="bicycle_p0_b_33" type="bicycle_p0_b__bicycle" depart="118.34" departLane="best">
        <route edges="694609276 875074258 1214310714 1125937899#0 1125937899#1 1461641439 1004744421 875070294 875070295 1087007031 875071472 1004744419 115674753#1 1093328715" />
    </vehicle>
    <vehicle id="bicycle_p0_b_34" type="bicycle_p0_b__bicycle" depart="121.92" departLane="best">
        <route edges="-1104044000#0 1491172365#2 1491172365#3 -243006566#4 -243006566#3 115560899#0 115560899#1 -1491172357#1 -99682907#3 1461641434#1 1461641436 1461641435 184745185#0 184745185#1 184745185#2 184745185#3 184745185#5 1461641458#1 1461641458#2 1461641458#3 1461641457#0 1461641457#1 1461641433#0 1461641433#1 1461641433#2 1461641433#3 103426225#0 103426225#1 103426225#2 103426225#4 103426225#6 1026606158 -875149911#2 -875149911#0 -459456564#4 -459456564#2" />
    </vehicle>
    <vehicle id="bicycle_p0_b_35" type="bicycle_p0_b__bicycle" depart="125.51" departLane="best">
        <route edges="115514716#2 115514716#3 -1104045493#1 -1491172369#1 -1491172369#0 -824158743#2 -203589976#7 -203589976#4 -203589976#3 -203589976#1 -203589976#0 38393993#0 1461641435 184745185#0 184745185#1 184745185#2 184745185#3 184745185#5 1461641458#1 -293236498#1 -293236498#0" />
    </vehicle>
    <vehicle id="bicycle_p0_b_36" type="bicycle_p0_b__bicycle" depart="129.10" departLane="best">
        <route edges="-694766184#1 -694766184#0 -290406163 293236498#1 1461641458#2 1461641458#3 1461641456#0 1461641456#1 960082436 291878857#2 -291878855#10 -291878855#9 291929986#0" />
    </vehicle>
    <vehicle id="bicycle_p0_b_37" type="bicycle_p0_b__bicycle" depart="132.68" departLane="best">
        <route edges="995560534#0 -1026368162#0 -459456564#2 -459456564#1 -459456564#0 -459456563 -116625957#1 -116625957#0 -1125927214#3 -1125927214#2 417235727#0 417235727#2 417235727#3 266143645#1 266143645#3 723313369#1 723313369#2 723313369#3 723313369#4 723313369#5 723313369#6 138652733 723313368 38359894 723313398 1491183950#1 -1033645484 -1033645486#0 -38359862 -1473695733 38393862 203589971#1 203589971#2 931405746 931388877 203589972#0 203589972#1 203589972#2 -38359845#1 -38359845#0 -1004737861#2 -1004744416#1 -1004744417 115560988#1 115560988#2" />
    </vehicle>
    <vehicle id="bicycle_p0_b_38" type="bicycle_p0_b__bicycle" depart="136.27" departLane="best" departSpeed="max">
        <route edges="-1089752634#1 -1089752634#0 -1089752630#1 -1089752630#0 -115560946#2 -115560946#1 -115560946#0 115560947#1 115560947#2 -1068024437#1 -422195700 -965875491#1 -965875491#0 38691390#3 -87494509#6 -87494509#5 -87494509#3 -87494509#1 -87494509#0 -1057888578 725287635#6 725287635#1 203589970#0 -108636964#1 -108636964#0" />
    </vehicle>
    <vehicle id="bicycle_p0_b_39" type="bicycle_p0_b__bicycle" depart="139.85" departLane="best">
        <route edges="114531734#1 1461641442#1" />
    </vehicle>
    <vehicle id="bicycle_p0_b_40" type="bicycle_p0_b__bicycle" depart="143.44" departLane="best">
        <route edges="266143623#1 -266143650#2 -266143650#1 115514716#3 -1104045493#1 -1491172369#1 -1491172369#0 -824158743#2 -203589976#7 -203589976#4 -203589976#3 -203589976#1 -203589976#0 38393993#0 1461641435 184745185#0 184745185#1 184745185#2 184745185#3 184745185#5 115561178#1 1066890896#1 1069245845" />
    </vehicle>
    <vehicle id="bicycle_p0_b_41" type="bicycle_p0_b__bicycle" depart="147.03" departLane="best" departSpeed="max">
        <route edges="-1069288952#1 -1069288952#0 -1491183944#0 -1491183943#1 -99682907#3 1461641434#1 1461641436 1461641435 184745185#0 184745185#1 184745185#2 184745185#3 184745185#5 1461641458#1 1461641458#2 1461641458#3 1461641457#0 1461641457#1 1461641433#0 1461641433#1 1461641433#2 1461641433#3 103426225#0 103426225#1 103426225#2 103426225#4 103426225#6 1026606158" />
    </vehicle>
    <vehicle id="bicycle_p0_b_42" type="bicycle_p0_b__bicycle" depart="150.61" departLane="best">
        <route edges="-995558703 -38375840#1 203589964#0 824174716 1423662169#0 694609276 875074258 1214310714 1125937899#0 1125937899#1 1461641439 1004744421 875070294 875070295 1087007031 875071472 1004744419 38375826 1004744417 1004744416#0 -545148171#1 -1004737860 115561673#1 115561673#2 115561673#3 115561673#4" />
    </vehicle>
    <vehicle id="bicycle_p0_b_43" type="bicycle_p0_b__bicycle" depart="154.20" departLane="best">
        <route edges="-1461641433#0 -1461641457#1 -1461641457#0 -1461641458#3 -1461641458#2 -1461641458#1 417228502#1 417228502#2 1491172359#0 -1461641437 -38393992#2 -1099670076#1 1099670075#0 694609276 875074258 1214310714 1125937899#0 1125937899#1 1461641439 1004744421 875070294 875070295 1087007031 875071472 1004744419 38375826 1004744417 1004744416#0 -545148171#1 -1004737860 -170772575 -135704149 -646265607#0 -115673962#1" />
    </vehicle>
    <vehicle id="bicycle_p0_b_44" type="bicycle_p0_b__bicycle" depart="157.78" departLane="best">
        <route edges="-253106104#0 -253106105#3 -253106105#2 -253106105#1 -253106105#0 -203589969#3 -203589969#2 -203589969#1 -203589969#0 -1420160203 203589949#3 1420160204 1461641460 203589962#0 203589962#1 410529592#1 1461641452#1 988510421 1461641451#0 1461641451#1 410529595#0 410529595#1 725287636#0 108646023#0 108646023#1 108646023#3 1461641449#0 1461641449#1 1462125970" />
    </vehicle>
    <vehicle id="bicycle_p0_b_45" type="bicycle_p0_b__bicycle" depart="161.37" departLane="best">
        <route edges="114532723#1 203589978#0 203589978#1 203589978#2 203589978#3 203589978#4 203589978#6 1461641444#0 417309446#0 417309446#2 646265608 170772575 1004737860 545148171#0 -1004744416#1 -1004744417 -38375826 -1004744419 -875071472 -1087007031 -875070295 -875070294 -1004744421 -38393865 112603198#1 911225805#1 624091858#0 624091858#1 624091858#2 624091858#3 107202366#0" />
    </vehicle>
    <vehicle id="bicycle_p0_b_46" type="bicycle_p0_b__bicycle" depart="164.96" departLane="best">
        <route edges="-960082440 -291878855#0 -1461641456#1 -1461641456#0 1461641457#0 1461641457#1 1461641433#0 1461641433#1 1461641433#2 1461641433#3 103426225#0 103426225#1 103426225#2 103426225#4 103426225#6 1026606158 -875149911#2 -875149911#0 -459456564#4 -459456564#2 -459456564#1 -459456564#0 -459456563 -116625957#1 -116625957#0 -1125927214#3 -1125927214#2 957690467" />
    </vehicle>
    <vehicle id="bicycle_p0_b_47" type="bicycle_p0_b__bicycle" depart="168.54" departLane="best">
        <route edges="417235727#2 417235727#3 266143645#1 266143645#3 -87494509#3 -87494509#1 -87494509#0 -1057888578 725287635#6 725287635#1 203589970#0 203589970#1 203589970#2 203589970#3 203589970#4 203589949#1 203589949#2 203589949#3 1420160204 1461641460 203589962#0 203589962#1 -1461641453#0 -1491183966#0 -38359868#2 1491172361#1 38393868#0 38393868#1 38393868#2 1491172360#0 99682907#2 1491172357#1 243006969#1 -462439202#1" />
    </vehicle>
    <vehicle id="bicycle_p0_b_48" type="bicycle_p0_b__bicycle" depart="172.13" departLane="best">
        <route edges="694603077#0 694603077#1 1125937900#0 1030215631#0 -1030215631#0 -1125937900#0 694603078#0 694603078#1 694603075#6 694603072 -1428233169 -1104045493#1 -1491172369#1 -1491172369#0 -824158743#2 1491172361#1 38393868#0 38393868#1 630462798#1" />
    </vehicle>
    <vehicle id="bicycle_p0_b_49" type="bicycle_p0_b__bicycle" depart="175.71" departLane="best">
        <route edges="-290406163 293236498#1 1461641458#2 1461641458#3 1461641456#0 1461641456#1 291878855#0 291878855#1 1461641455 291878856#0 -115561168#3 -115561168#2 -115561168#1 -1491172374 -203589962#1 -203589962#0 -1461641460 -1420160204 203589949#4 203589949#5 203589949#1 -1420160202 -108899907#2 -108899907#1 -1461641461" />
    </vehicle>
    <vehicle id="bicycle_p0_b_50" type="bicycle_p0_b__bicycle" depart="179.30" departLane="best" departSpeed="max">
        <route edges="115561082#0 -1461641433#3 -1461641433#2 -1461641433#1 -1461641433#0 -1461641457#1 -1461641457#0 -1461641458#3 -960082441#3 -960082441#2 -960082441#1 -960082440 291878855#1 1461641455 291878856#0 -115561168#3 -115561168#2 -115561168#1 -1491172374 410529592#1 1461641452#1 988510421 1461641451#0 1461641451#1 410529595#0 410529595#1 725287636#0 108646023#0 108646023#1 108646023#3 1461641449#0 1461641449#1 203589954#1 203589954#2 1491183954#1 1491183954#2 38375823#0 38375823#1 1365389583#0 1365389583#1 1365389583#2 1461641462" />
    </vehicle>
    <vehicle id="bicycle_p0_b_51" type="bicycle_p0_b__bicycle" depart="182.89" departLane="best">
        <route edges="-243006566#0 -243006967#1 -243006967#0 243006968#0 243006968#1 -38393992#2 -1099670076#1 1099670075#0 38359851#1 1423673546 -824174714 824174715 38359865#2 1491183952 1068837568 1491183954#0 1491183954#1 1491183954#2 1461641447 1491183956 1491183957 1491183958#1 38359850#1 1491183959 1491183960 1068837569 203589972#2 38655903#0 38655903#1 38655903#2 38655903#3 -38359857#2 -294747092 115675457#0 115675457#1" />
    </vehicle>
    <vehicle id="bicycle_p0_b_52" type="bicycle_p0_b__bicycle" depart="186.47" departLane="best">
        <route edges="-253106105#1 -253106105#0 -203589969#3 -203589969#2 -203589969#1 -203589969#0 -1420160203 203589949#3 1420160204 1461641460 203589962#0 203589962#1 -1461641453#0 -1491183966#0" />
    </vehicle>
    <vehicle id="bicycle_p0_b_53" type="bicycle_p0_b__bicycle" depart="190.06" departLane="best" departSpeed="max">
        <route edges="-1004737848 -115560988#1 1004744417 1004744416#0 -1004744416#1 -1004744417 -38375826 -1004744419 -875071472 -1087007031 -875070295 -875070294 -1004744421 -38393865 -1125937899#1 -1125937899#0 -1214310714 -875074258 694609277#0 38359851#1 1423673546 -824174714 824174715 38359865#2 1423673548#0 38359852#0 38359852#1 38359852#2 694603075#3 694603075#4 694603077#0 694603077#1 1125937900#0 1125937900#1 38393860#0 725287636#0 203589973#1 203589973#3 203589973#4 1420160205 203589949#5 203589949#1 203589949#2 1420160203 203589969#0 203589969#1 -958527525#0" />
    </vehicle>
    <vehicle id="bicycle_p0_b_54" type="bicycle_p0_b__bicycle" depart="193.64" departLane="best" departSpeed="max">
        <route edges="-1026072355 -459456564#2 -459456564#1 -459456564#0 -459456563 -116625957#1 -116625957#0 -1125927214#3 -1125927214#2 417235727#0 417235727#2 417235727#3 266143645#1 266143645#3 -87494509#3 -87494509#1" />
    </vehicle>
    <vehicle id="bicycle_p0_b_55" type="bicycle_p0_b__bicycle" depart="197.23" departLane="best">
        <route edges="-291929986#3 -291929986#2 -291929986#1 -694771199 -291878855#6 -291878855#5 -960082452 -960082450 -264473952#5 -264473952#3 -264473952#2 -264473952#0 -1491172374 410529592#1 1461641452#1 988510421 1461641451#0 1461641451#1 410529595#0 410529595#1 725287636#0 725287636#1 725287636#2 725287635#3 164415954#0 164415954#1 164415954#2 1461641450#1 1461641450#2 1461641450#3 266143610#4 266143610#5 266143651#0 -953598129#2 -953598129#1 1089752630#1" />
    </vehicle>
    <vehicle id="bicycle_p0_b_56" type="bicycle_p0_b__bicycle" depart="200.82" departLane="best">
        <route edges="-243006967#1 -243006967#0 243006968#0 243006968#1 -38393992#2 -1099670076#1 1099670075#0 38359851#1 1423673546 -824174714 824174715 38359865#2 1423673548#0 38359852#0 38359852#1 38359852#2 694603075#3 694603075#4 694603077#0 694603077#1 1125937900#0 1125937900#1 38393860#0 725287636#0 725287636#1 1270697022 1270972866 -1270697026#0" />
    </vehicle>
    <vehicle id="bicycle_p0_b_57" type="bicycle_p0_b__bicycle" depart="204.40" departLane="best">
        <route edges="-988510417#0 -116625957#1 -116625957#0 -1125927214#3 -1125927214#2 417235727#0 417235727#2 417235727#3 266143645#1 266143645#3 -87494509#3 1184728292" />
    </vehicle>
    <vehicle id="bicycle_p0_b_58" type="bicycle_p0_b__bicycle" depart="207.99" departLane="best">
        <route edges="108040331#1 1491172370#0 -108895901#1 -108895901#0 1420951657#0 1420951657#1 -630462798#2 -630462798#1 38393868#2 1491172360#0 99682907#2 1491183943#1 1491183944#0 1491183944#1 1491183944#2 1491183944#3 -683745965#1 254747692#0 254747692#1" />
    </vehicle>
    <vehicle id="bicycle_p0_b_59" type="bicycle_p0_b__bicycle" depart="211.57" departLane="best" departSpeed="max">
        <route edges="-1419201816 -1419201815#1 1491172365#3 -243006566#4 -243006566#3 -243006566#1 -243006566#0 -243006967#1 -243006967#0 243006968#0 243006968#1 -38393992#2 -1099670076#1 1099670075#0 548247853#2 116451461#1 182017479#1 -624091858#1 -624091858#0 -911225805#1" />
    </vehicle>
    <vehicle id="bicycle_p0_b_60" type="bicycle_p0_b__bicycle" depart="215.16" departLane="best" departSpeed="max">
        <route edges="995557408 115561163#1 372020013#1 372020014 -723312334#3 -723312334#1 -723312334#0 -1033645484 -1033645486#0 -38359862 694603074#0 694603074#2 694603074#3 1462125970 1030215636 1030215635 694603075#4 694603075#5 694603075#6 694603072 -1428233169 -1104045493#1 -1491172369#1 -1491172369#0 -824158743#2 1491172361#1 38393868#0 38393868#1 38393868#2 1491172360#0 99682907#2 1491172357#1 243006970#1 1491172358" />
    </vehicle>
    <vehicle id="bicycle_p0_b_61" type="bicycle_p0_b__bicycle" depart="218.75" departLane="best" departSpeed="max">
        <route edges="-115561056 410529595#1 -38393860#0 -1125937900#1 -1125937900#0 694603078#0 694603078#1 694603075#6 694603072 -1428233169 -1104045493#1 -1491172369#1 -1491172369#0 -824158743#2 1491172361#1 38393868#0 38393868#1 38393868#2 1491172360#0 99682907#2 1491183943#1 1491183944#0 1491183944#1 1491183944#2 1491183944#3 -683745965#1 -683745965#0 -296624565" />
    </vehicle>
    <vehicle id="bicycle_p0_b_62" type="bicycle_p0_b__bicycle" depart="222.33" departLane="best" departSpeed="max">
        <route edges="-417235700 38393875#0 38393875#1 -38393870#4 38691390#0 38691390#3 -87494509#6 -87494509#5 -87494509#3 -87494509#1 -87494509#0 -1057888578 725287635#6 725287635#1 203589970#0 203589970#1 203589970#2 203589970#3 203589970#4 203589949#1 203589949#2 203589949#3 1420160204 1461641460 203589962#0 203589962#1 410529592#1 1461641452#1 988510421 1491172372#0 1491172372#1 1270975151#1" />
    </vehicle>
    <vehicle id="bicycle_p0_b_63" type="bicycle_p0_b__bicycle" depart="225.92" departLane="best">