<?xml version='1.0' encoding='UTF-8'?>
<routes>
    <vType id="truck_p0_b__truck" vClass="truck" />
    <vehicle id="truck_p0_b_0" type="truck_p0_b__truck" depart="0.00" departLane="best">
        <route edges="683745965#1 -1491183944#3 -1491183944#2 -1491183944#1 -1491183944#0 -1491183943#1 -99682907#3 -1461641437 -38393992#2 -1099670076#1 1099670075#0 694609276 875074258 1214310714 1125937899#0 1125937899#1 1461641439 1004744421 875070294 875070295 1087007031 875071472 1004744419 38375826 1004744417 1004744416#0 -545148171#1 -1004737860 -170772575 -135704149 114150961#1 114150961#2 1461641446#1 114533140#1" />
    </vehicle>
    <vehicle id="truck_p0_b_1" type="truck_p0_b__truck" depart="4.50" departLane="best" departSpeed="max">
        <route edges="108882988 108885733#1 115560948#1 38691390#3 -87494509#6 -87494509#5 -87494509#3 -87494509#1 -87494509#0 -1057888578 725287635#6 725287635#1 203589970#0 203589970#1 203589970#2 203589970#3 203589970#4 203589949#1 203589949#2 203589949#3 1420160204 1461641460 203589962#0 203589962#1 -1461641453#0 -1491183966#0 -38359868#2 1491172361#1 38393868#0 38393868#1 38393868#2 1491172360#0 99682907#2" />
    </vehicle>
    <vehicle id="truck_p0_b_2" type="truck_p0_b__truck" depart="9.00" departLane="best">
        <route edges="115560895#4 38393869#1 875027030 875027029#0 875027029#1 875027029#2 38393875#0 38393875#1 -38393870#4 38691390#0 38691390#3 -87494509#6 -87494509#5 -87494509#3 -87494509#1 -87494509#0 -1057888578 725287635#6 725287635#1 203589970#0 203589970#1 203589970#2 203589970#3 203589970#4 203589949#1 -1420160202 -108899907#2 -108899907#1" />
    </vehicle>
    <vehicle id="truck_p0_b_3" type="truck_p0_b__truck" depart="13.50" departLane="best">
        <route edges="108899907#2 1420160202 203589949#2 203589949#3 1420160204 1461641460 203589962#0 203589962#1 1461641459#1 115561168#1 115561168#2 115561168#3 115561168#4 115561168#5 115561168#6 115561168#7 184745185#3 184745185#5 1461641458#1 1461641458#2 1461641458#3 1461641457#0 1461641457#1 1461641433#0 1461641433#1 1461641433#2 1461641433#3 103426225#0 103426225#1 -115561204#0" />
    </vehicle>
    <vehicle id="truck_p0_b_4" type="truck_p0_b__truck" depart="18.00" departLane="best" departSpeed="max">
        <route edges="-417235700 38393875#0 38393875#1 -38393870#4 38691390#0 38691390#3 1028732094#0 266143645#1 266143645#3 87494509#5" />
    </vehicle>
    <vehicle id="truck_p0_b_5" type="truck_p0_b__truck" depart="22.50" departLane="best" departSpeed="max">
        <route edges="113595957#0 -624091858#2 -624091858#1 -624091858#0 112602521#1 1214310714 1125937899#0 1125937899#1 1461641439 1004744421 875070294 875070295 1087007031 875071472 1004744419 38375826 115684389#1 1137637521#1 115684382" />
    </vehicle>
    <vehicle id="truck_p0_b_6" type="truck_p0_b__truck" depart="27.00" departLane="best">
        <route edges="-115561168#4 -115561168#3 -115561168#2 -115561168#1 -1491172374 410529592#1 1461641452#1 988510421 1461641451#0 1461641451#1 410529595#0 410529595#1 725287636#0 108646023#0 108646023#1 108646023#3 1461641449#0 1461641449#1 203589954#1 203589954#2 1491183954#1 1491183954#2 1461641447 1491183956 1491183957 1491183958#1 38359850#1 1491183959 1491183960 1068837569 203589972#2 38655903#0 38655903#1 38655903#2 38655903#3 -38359857#2 -38359857#1 -38359857#0" />
    </vehicle>
    <vehicle id="truck_p0_b_7" type="truck_p0_b__truck" depart="31.51" departLane="best">
        <route edges="115560919#1 115560919#2 115514716#2 115514716#3 -1104045493#1 -1491172369#1 -1491172369#0 -824158743#2 -203589976#7 -203589976#4 -203589976#3 -203589976#1 -203589976#0 38393993#0 1461641435 184745185#0 184745185#1 184745185#2 184745185#3 184745185#5 1057883200#1" />
    </vehicle>
    <vehicle id="truck_p0_b_8" type="truck_p0_b__truck" depart="36.01" departLane="best">
        <route edges="824158743#1 1491172369#0 1491172369#1 1104045493#1 1428233169 694603073 694603075#1 694603075#2 694603075#3 694603075#4 694603077#0 694603077#1 1125937900#0 1125937900#1 38393860#0 725287636#0 725287636#1 725287636#2 725287635#3 725287635#4 725287635#5 1057888578 87494509#0 -108686154#1 -108686154#0" />
    </vehicle>
    <vehicle id="truck_p0_b_9" type="truck_p0_b__truck" depart="40.51" departLane="best">
        <route edges="-875070294 -1004744421 -38393865 -1125937899#1 -1125937899#0 -1214310714 -875074258 694609277#0 38359851#1 1423673546 -824174714 824174715 38359865#2 1423673548#0 38359852#0 38359852#1 38359852#2 694603075#3 694603075#4 694603077#0 694603077#1 1125937900#0 1125937900#1 38393860#0 725287636#0 725287636#1 725287636#2 725287635#3 164415954#0 164415954#1" />
    </vehicle>
    <vehicle id="truck_p0_b_10" type="truck_p0_b__truck" depart="45.01" departLane="best" departSpeed="max">
        <route edges="115673962#0 115673962#1 646265607#0 646265608 170772575 1004737860 545148171#0 -1004744416#1 -1004744417 -38375826 -1004744419 -875071472 -1087007031 -875070295 -875070294 -1004744421 -38393865 -1125937899#1 -1125937899#0 -1214310714" />
    </vehicle>
    <vehicle id="truck_p0_b_11" type="truck_p0_b__truck" depart="49.51" departLane="best">
        <route edges="203589969#3 -266143655#10 -266143655#9 -266143655#8 -266143655#7 -266143655#6 1461641461 108899907#1 108899907#2 1420160202 203589949#2 203589949#3 1420160204 1461641460 203589962#0 203589962#1 410529592#1 1461641452#1 988510421 1461641451#0 1461641451#1 410529595#0 410529595#1 725287636#0 108646023#0 108646023#1 108646023#3 1461641449#0 1461641449#1 203589954#1 203589954#2 1491183954#1 1491183954#2 1461641447 1491183956 1491183957 1491183958#1 38359850#1 1491183959 1491183960 1068837569 203589972#2 -38359845#1 -38359845#0 -1004737861#2 -1004744416#1 -1004744417 -38375826 -1004744419 -875071472 -1087007031 -875070295 -875070294 -1004744421 -38393865" />
    </vehicle>
    <vehicle id="truck_p0_b_12" type="truck_p0_b__truck" depart="54.01" departLane="best">
        <route edges="38359864#1 1491183957 1491183958#1 38359850#1 1491183959 38375838 38375848 417235733#0 417235733#1 101152389 1479274894 1473695733 694603074#0 694603074#2 694603074#3 1462125970 1030215636 1030215635 694603075#4 694603077#0 694603077#1 1125937900#0 1125937900#1 38393860#0 725287636#0 203589973#1 203589973#3 203589973#4 1420160205 203589949#5 203589949#1 203589949#2 1420160203 203589969#0 677624523#1" />
    </vehicle>
    <vehicle id="truck_p0_b_13" type="truck_p0_b__truck" depart="58.51" departLane="best" departSpeed="max">
        <route edges="-723387976#1 624091858#3 107202366#0 1461641463 824174717#1 38359851#1 1423673546 -824174714 824174715 38359865#2 1423673548#0 38359852#0 38359852#1 38359852#2 694603075#3 694603075#4 694603077#0 694603077#1 1125937900#0 1125937900#1 38393860#0 725287636#0 108646023#0 108646023#1 1029701448 108686053#1" />
    </vehicle>
    <vehicle id="truck_p0_b_14" type="truck_p0_b__truck" depart="63.01" departLane="best">
        <route edges="-115560988#2 -115560988#1 1004744417 1004744416#0 1004737861#1 38359845#0 38359845#1 38655903#0 38655903#1 38655903#2 38655903#3 417114094#0 417114094#1 417192337#0 417192337#1 417192337#2 38691389#0 38691389#1 931378515#0 931378515#1 417235733#0 417235733#1 101152389 1479274894 1473695733 694603074#0 694603074#2 1461641462 -38691413" />
    </vehicle>
    <vehicle id="truck_p0_b_15" type="truck_p0_b__truck" depart="67.51" departLane="best">
        <route edges="-1461641433#3 -1461641433#2 -1461641433#1 -1461641433#0 -1461641457#1 -1461641457#0 -1461641458#3 -1461641458#2 -1461641458#1 115561178#1 243007677 -115561179#0 115561180#2 547154355#1" />
    </vehicle>
    <vehicle id="truck_p0_b_16" type="truck_p0_b__truck" depart="72.01" departLane="best">
        <route edges="1479274894 1473695733 -1473695733 38393862 203589971#1 203589971#2 38375848 417235733#0 417235733#1 -417192344#3 -417192344#2 -417192344#1 -417192344#0 -931220687#2 -931220687#1 -931220687#0 -570104370" />
    </vehicle>
    <vehicle id="truck_p0_b_17" type="truck_p0_b__truck" depart="76.51" departLane="best">
        <route edges="203589978#0 203589978#1 203589978#2 203589978#3 203589978#4 203589978#6 1461641444#0 417309446#0 417309446#2 646265608 170772575 1004737860 545148171#0 -1004744416#1 -1004744417 -38375826 -1004744419 -875071472 -1087007031 -875070295 -875070294 -1004744421 -38393865 -1125937899#1 -1125937899#0 -1214310714 -875074258 694609277#0 1099670074#1 1309272820 38393992#1 38393992#3 -1491172360#1 -38393868#2 -38393868#1 -38393868#0" />
    </vehicle>
    <vehicle id="truck_p0_b_18" type="truck_p0_b__truck" depart="81.01" departLane="best" departSpeed="max">
        <route edges="115561082#0 103426225#0 103426225#1 103426225#2 103426225#4 103426225#6 1026606158 -875149911#2 -875149911#0 -459456564#4 -459456564#2 -459456564#1 -459456564#0 -459456563 -116625957#1 -116625957#0 -1125927214#3 -1125927214#2 417235727#0 417235727#2 417235727#3" />
    </vehicle>
    <vehicle id="truck_p0_b_19" type="truck_p0_b__truck" depart="85.51" departLane="best" departSpeed="max">
        <route edges="115560987 -115561673#2 -115561673#1 1004737860 545148171#0 1004737861#1 38359845#0 38359845#1 38655903#0 38655903#1 38655903#2 38655903#3 417114094#0 417114094#1 417192337#0 417192337#1 417192337#2 38691389#0 38691389#1 931378515#0 931378515#1 417235733#0 417235733#1 101152389 1479274894 1473695733 1033645489#0 1033645488 1033645485 723312334#0 723312334#1 723312334#3 723312334#4 723312334#5 723312334#7 723312334#8 38691390#0 38691390#3 115561170#0 115561170#1 108885733#0 -108882988" />
    </vehicle>
    <vehicle id="truck_p0_b_20" type="truck_p0_b__truck" depart="90.01" departLane="best" departSpeed="max">
        <route edges="-417235700 38393875#0 38393875#1 -38393870#4 -723312334#8 -723312334#7 -723312334#6 -723312334#4 -723312334#3 -723312334#1 -723312334#0 -1033645484 -1033645486#0 -38359862 694603074#0 694603074#2 694603074#3 1462125970 1030215636 1030215635 694603075#4 694603075#5 694603075#6 694603075#7 694603075#1 694603076#0 694603076#1 1423673547#0 1423673547#1 38359865#0 266143653 824174714 -1423673546 824174716 1423662169#0 548247853#2 1461641388 249079039#0 249079039#1 243006565#1 243006567#0 243006567#1 243006566#0 243006566#1 243006566#3" />
    </vehicle>
    <vehicle id="truck_p0_b_21" type="truck_p0_b__truck" depart="94.52" departLane="best" departSpeed="max">
        <route edges="266143646#0 417235727#0 417235727#2 417235727#3 266143645#1 266143645#3 723313369#1 723313369#2 723313369#3 723313369#4 723313369#5 723313369#6 138652733 723313368 38359894 723313398 1491183950#1 -1033645484 -1033645486#0 -38359862 -1473695733 38393862 203589971#1 203589971#2 931405746 931388877 203589972#0 203589972#1 203589972#2 -38359845#1 -38359845#0 -1004737861#2 -545148171#1 -1004737860 -170772575 -135704149 114150961#1 114150961#2 1461641446#1" />
    </vehicle>
    <vehicle id="truck_p0_b_22" type="truck_p0_b__truck" depart="99.02" departLane="best">
        <route edges="-1099670076#1 1099670075#0 38359851#1 1423673546 -824174714 824174715 38359865#2 1423673548#0 38359852#0 38359852#1 38359852#2 694603075#3 694603075#4 694603077#0 694603077#1 1125937900#0 1125937900#1 38393860#0 725287636#0 725287636#1 725287636#2 725287635#3 725287635#4 725287635#5 1057888578 87494509#0 87494509#1 87494509#2 87494509#5 87494509#6 1028732094#0 -417235727#3 -417235727#2 -417235727#1 -266143646#1" />
    </vehicle>
    <vehicle id="truck_p0_b_23" type="truck_p0_b__truck" depart="103.52" departLane="best">
        <route edges="931388877 203589972#0 203589972#1 203589972#2 -38359845#1 -38359845#0 -1004737861#2 -1004744416#1 -1004744417 -38375826 -1004744419 -875071472 -1087007031 -875070295 -875070294 -1004744421 -38393865 -1125937899#1 -1125937899#0 -1214310714" />
    </vehicle>
    <vehicle id="truck_p0_b_24" type="truck_p0_b__truck" depart="108.02" departLane="best" departSpeed="max">
        <route edges="108686154#0 108686154#1 87494509#1 87494509#2 723313369#1 723313369#2 723313369#3 723313369#4 723313369#5 723313369#6 138652733 723313368 38359894 723313398 1491183950#1 -1033645484 -1033645486#0 -38359862 -1473695733 38393862 203589971#1 203589971#2 38375848 417235733#0 417235733#1 -417192344#3 -417192344#2 -417192344#1 -417192344#0 -931220687#2 -931220687#1 -931220687#0" />
    </vehicle>
    <vehicle id="truck_p0_b_25" type="truck_p0_b__truck" depart="112.52" departLane="best" departSpeed="max">
        <route edges="115561078 203589978#3 203589978#4 203589978#6 1461641444#0 417309446#0 417309446#2 646265608 170772575 1004737860 545148171#0 1004737861#1 38359845#0 38359845#1 38655903#0 38655903#1 38655903#2 38655903#3 417114094#0 417114094#1 38375846#0 38375846#1 38375846#2 38375846#3 931220687#0 931220687#1 931220687#2 38691414#1" />
    </vehicle>
    <vehicle id="truck_p0_b_26" type="truck_p0_b__truck" depart="117.02" departLane="best" departSpeed="max">
        <route edges="-115561669#1 38375846#3 931220687#0 931220687#1 931220687#2 1125927213#0 115561161#0 115561161#1 372020013#0 372020013#1 372020014 723312334#4 723312334#5 723312334#7 723312334#8 38691390#0 38691390#3 1028732094#0 -417235727#3 -417235727#2 -417235727#1 1125927214#2 1125927214#3 116625957#0 116625957#1 459456563" />
    </vehicle>
    <vehicle id="truck_p0_b_27" type="truck_p0_b__truck" depart="121.52" departLane="best">
        <route edges="266143655#2 266143655#4 266143655#5 1461641461 108899907#1 108899907#2 1420160202 203589949#2 203589949#3 1420160204 1461641460 203589962#0 203589962#1 410529592#1 1461641452#1 1491172371#1 1491172368#0 108040331#1 1491172370#0 243007176#1 -1099670076#1 1099670075#0 694609276 875074258 1214310714 1125937899#0 1125937899#1 1461641439 1004744421 875070294 875070295 1087007031 875071472 1004744419 38375826 115684389#1 1137637521#1 115684382" />
    </vehicle>
    <vehicle id="truck_p0_b_28" type="truck_p0_b__truck" depart="126.02" departLane="best">
        <route edges="243006967#1 243006566#0 243006566#1 115560899#0 115560899#1 -1491172357#1 -99682907#3 1461641434#1 1461641436 1461641435 184745185#0 184745185#1 184745185#2 184745185#3 184745185#5 1461641458#1 1461641458#2 1461641458#3 1461641457#0 1461641457#1 1461641433#0 1461641433#1 1461641433#2 1461641433#3 103426225#0 114614791" />
    </vehicle>
    <vehicle id="truck_p0_b_29" type="truck_p0_b__truck" depart="130.52" departLane="best">
        <route edges="624091858#0 624091858#1 624091858#2 624091858#3 107202366#0 1461641463 824174717#1 38359851#1 1423673546 -824174714 824174715 38359865#2 1423673548#0 38359852#0 38359852#1 38359852#2 694603075#3 694603075#4 694603077#0 694603077#1 1125937900#0 1125937900#1 38393860#0 725287636#0 725287636#1 725287636#2 725287635#3 725287635#4 725287635#5 1057888578 87494509#0 -108686154#1 -108686154#0" />
    </vehicle>
    <vehicle id="truck_p0_b_30" type="truck_p0_b__truck" depart="135.02" departLane="best">
        <route edges="417235727#0 417235727#2 417235727#3 266143645#1 266143645#3 -87494509#3 -87494509#1 -87494509#0 -1057888578 725287635#6 725287635#1 725287635#2 -725287636#2 -725287636#1 -725287636#0 -38393860#0 -1125937900#1 -1125937900#0 694603078#0 694603078#1 694603075#6 694603075#7 694603075#1 694603076#0 694603076#1 1423673547#0 1423673547#1 38359865#0 266143653 824174714 -1423673546 824174716 1491172367#0 1491172367#1" />
    </vehicle>
    <vehicle id="truck_p0_b_31" type="truck_p0_b__truck" depart="139.52" departLane="best">
        <route edges="115560901 115560903#3 115560903#4 -1125927213#1 -1125927213#0 417192344#0 417192344#1 417192344#2 417192344#3 101152389 1479274894 1473695733 694603074#0 694603074#2 694603074#3 1462125970 1030215636 1030215635 694603075#4 694603075#5 694603075#6 694603072 -1428233169 -1104045493#1 -1491172369#1 -1491172369#0 -824158743#2 38359868#1 1491183966#0" />
    </vehicle>
    <vehicle id="truck_p0_b_32" type="truck_p0_b__truck" depart="144.02" departLane="best">
        <route edges="1125927213#0 115561161#0 115561161#1 115561161#2 254747697#0 254747697#2 417192344#2 417192344#3 101152389 1479274894 1473695733 694603074#0 694603074#2 694603074#3 203589954#1 203589954#2 203589957#1 203589968#1 203589968#4 203589964#0" />
    </vehicle>
    <vehicle id="truck_p0_b_33" type="truck_p0_b__truck" depart="148.52" departLane="best">
        <route edges="108895901#1 243007176#1 -1099670076#1 1099670075#0 38359851#1 1423673546 -824174714 824174715 38359865#2 1491183952 1068837568 1491183954#0 1491183954#1 1491183954#2 38375823#0 38375823#1 1365389583#0 1365389583#1 1365389583#2 1461641462 723507899 1491183946#1 1491183946#2 1491183947#0 1491183947#1 138652753#0 138652753#1 723313398 1491172355 723312334#1 723312334#3 723312334#4 723312334#5 723312334#7 723312334#8 38393870#0 -38393875#3 -38393875#0" />
    </vehicle>
    <vehicle id="truck_p0_b_34" type="truck_p0_b__truck" depart="153.02" departLane="best">
        <route edges="824174714 -1423673546 824174716 1423662169#0 1099670074#1 1309272820 38393992#1 38393992#3 1461641434#1 1461641436 1461641435 184745185#0 184745185#1" />
    </vehicle>
    <vehicle id="truck_p0_b_35" type="truck_p0_b__truck" depart="157.53" departLane="best">
        <route edges="-243006970#1 -1491172357#1 -99682907#3 -1461641437 -38393992#2 -1099670076#1 1099670075#0 38359851#1 1423673546 -824174714 824174715 38359865#2 1491183952 1068837568 1491183954#0 1491183954#1 1491183954#2 1461641447 1491183956 1491183957 1491183958#1 38359850#1 1491183959 1491183960 1068837569 203589972#2 38655903#0 38655903#1 38655903#2 38655903#3 417114094#0 417114094#1 38375846#0 38375846#1 1004376506" />
    </vehicle>
    <vehicle id="truck_p0_b_36" type="truck_p0_b__truck" depart="162.03" departLane="best">
        <route edges="-115561168#7 -115561168#6 -115561168#5 -115561168#4 -115561168#3 -115561168#2 -115561168#1 -1491172374 410529592#1 1461641452#1 988510421 1461641451#0 1461641451#1 410529595#0 410529595#1 725287636#0 725287636#1 725287636#2 725287635#3 725287635#4 725287635#5 725287635#6 -108045029#1 -108045029#0" />
    </vehicle>
    <vehicle id="truck_p0_b_37" type="truck_p0_b__truck" depart="166.53" departLane="best">
        <route edges="115560895#3 108933164 115560954 115561161#1 115561161#2 254747697#0 254747697#2 417192344#2 417192344#3 101152389 1479274894 1473695733 694603074#0 694603074#2 694603074#3 1462125970 1030215636 1030215635 694603075#4 694603075#5 694603075#6 694603072 -1428233169 -1104045493#1 -1491172369#1 -1491172369#0 -824158743#2 38359868#1 1491183966#0 1491183966#1 1461641459#1 115561168#1 115561168#2 115561168#3 115561168#4" />
    </vehicle>
    <vehicle id="truck_p0_b_38" type="truck_p0_b__truck" depart="171.03" departLane="best">
        <route edges="243006968#0 243006968#1 38393992#3 1461641434#1 1461641436 1461641435 184745185#0 184745185#1 184745185#2 184745185#3 184745185#5 1461641458#1 1461641458#2 1461641458#3 1461641457#0 1461641457#1 1461641433#0 1461641433#1 1461641433#2 1461641433#3 103426225#0 103426225#1 103426225#2 103426225#4 103426225#6 1026606158 417228579#1" />
    </vehicle>
    <vehicle id="truck_p0_b_39" type="truck_p0_b__truck" depart="175.53" departLane="best">
        <route edges="115560947#2 115560945 723313369#5 723313369#6 138652733 723313368 38359894 723313398 1491183950#1 -1033645484 -1033645486#0 -38359862 694603074#0 694603074#2 694603074#3 1462125970 1030215636 1030215635 694603075#4 694603075#5 694603075#6 694603075#7 694603075#1 694603076#0 694603076#1 1423673547#0 1423673547#1 38359865#0 266143653 824174714 -1423673546 824174716 1423662169#0 548247853#2 1461641388 249079039#0 249079039#1 243006565#1 243006567#0 243006567#1 243006566#0 243006566#1 243006566#3 1283609633#1" />
    </vehicle>
    <vehicle id="truck_p0_b_40" type="truck_p0_b__truck" depart="180.03" departLane="best">
        <route edges="-1057888578 725287635#6 725287635#1 203589970#0 203589970#1 203589970#2 203589970#3 203589970#4 203589949#1 203589949#2 203589949#3 1420160204 1461641460 203589962#0 203589962#1 -1461641453#0 -1491183966#0 -38359868#2 1491172361#1 38393868#0 38393868#1 38393868#2 1491172360#0 99682907#2 1491172357#1 243006970#1 1491172358 -547154355#3 -114615023#0" />
    </vehicle>
    <vehicle id="truck_p0_b_41" type="truck_p0_b__truck" depart="184.53" departLane="best" departSpeed="max">
        <route edges="38359857#0 38359857#1 38359857#2 417114094#0 417114094#1 417192337#0 417192337#1 417192337#2 38691389#0 38691389#1 931378515#0 931378515#1 417235733#0 417235733#1 101152389 1479274894 1473695733 694603074#0 694603074#2 694603074#3 1462125970 1030215636 1030215635 694603075#4 694603075#5 694603075#6 694603072 -1428233169 -1104045493#1 -1491172369#1 -1491172369#0 -824158743#2 1491172361#1 38393868#0 38393868#1 38393868#2 1491172360#0 99682907#2 1491183943#1 1491183944#0 1491183944#1 1491183944#2 1491183944#3 -683745965#1 -683745965#0" />
    </vehicle>
    <vehicle id="truck_p0_b_42" type="truck_p0_b__truck" depart="189.03" departLane="best" departSpeed="max">
        <route edges="-630462798#5 -630462798#4 -630462798#2 -630462798#1 -38393868#1 -38393868#0 -1491172361#2 38359868#1 1491183966#0 1491183966#1 410529592#1 1461641452#1 988510421 1461641451#0 1461641451#1 410529595#0 410529595#1 725287636#0 725287636#1 725287636#2 725287635#3 725287635#4 725287635#5 1057888578 87494509#0 87494509#1 87494509#2 87494509#5 87494509#6 1028732094#0 -417235727#3 -417235727#2 -417235727#1 1125927214#2 1125927214#3 116625957#0 116625957#1 459456562" />
    </vehicle>
    <vehicle id="truck_p0_b_43" type="truck_p0_b__truck" depart="193.53" departLane="best">
        <route edges="38691414#1 931378515#0 931378515#1 417235733#0 417235733#1 101152389 1479274894 1473695733 694603074#0 694603074#2 694603074#3 1462125970 1030215636 1030215635 694603075#4 694603075#5 694603075#6 694603072 -1428233169 -1104045493#1 -1491172369#1 -1491172369#0 -824158743#2 38359868#1" />
    </vehicle>
    <vehicle id="truck_p0_b_44" type="truck_p0_b__truck" depart="198.03" departLane="best">
        <route edges="115560946#2 138652733 723313368 38359894 723313398 1491183950#1 -1033645484 -1033645486#0 -38359862 -1473695733 38393862 203589971#1 203589971#2 931405746 931388877 203589972#0 203589972#1 203589972#2 -38359845#1 -38359845#0 -1004737861#2 -545148171#1 -1004737860 115561673#1 115561673#2" />
    </vehicle>
    <vehicle id="truck_p0_b_45" type="truck_p0_b__truck" depart="202.53" departLane="best" departSpeed="max">
        <route edges="115561079 203589978#4 203589978#6 1461641444#0 417309446#0 417309446#2 646265608 170772575 1004737860 545148171#0 -1004744416#1 -1004744417 -38375826 -1004744419 -875071472 -1087007031 -875070295 -875070294 -1004744421 -38393865 -1125937899#1 -1125937899#0 -1214310714 -875074258 694609277#0 1099670074#1 1309272820 38393992#1 38393992#3 -1491172360#1 -38393868#2 -38393868#1 -38393868#0" />
    </vehicle>
    <vehicle id="truck_p0_b_46" type="truck_p0_b__truck" depart="207.03" departLane="best" departSpeed="max">
        <route edges="115561079 203589978#4 203589978#6 1461641444#0 417309446#0 417309446#2 646265608 170772575 1004737860 545148171#0 1004737861#1 38359845#0 38359845#1 38655903#0 38655903#1 38655903#2 38655903#3 417114094#0 417114094#1 417192337#0 417192337#1 417192337#2 38691389#0 38691389#1 931378515#0 931378515#1 417235733#0 417235733#1 101152389 1479274894 1473695733 694603074#0 694603074#2 694603074#3 1462125970 1030215636 1030215635 694603075#4 694603077#0 694603077#1 1125937900#0 1125937900#1 38393860#0 725287636#0 203589973#1 203589973#3 203589973#4 1420160205 203589949#5 203589949#1 -1420160202 -108899907#2 -108899907#1 -1461641461 266143655#6 266143655#7 266143655#8 266143655#9" />
    </vehicle>
    <vehicle id="truck_p0_b_47" type="truck_p0_b__truck" depart="211.53" departLane="best" departSpeed="max">
        <route edges="116980609#0 116980609#1 116980609#2 116980609#3 38393875#0 38393875#1 -38393870#4 38691390#0 38691390#3 1028732094#0 -417235727#3 949547103#0 949547103#1" />
    </vehicle>
    <vehicle id="truck_p0_b_48" type="truck_p0_b__truck" depart="216.03" departLane="best" departSpeed="max">
        <route edges="-115561669#1 38375846#3 931220687#0 931220687#1 931220687#2 417192344#0 417192344#1 417192344#2 417192344#3 101152389 1479274894 1473695733 694603074#0 694603074#2 694603074#3 1462125970 1030215636 1030215635 694603075#4 694603075#5 694603075#6 694603072 -1428233169 -1104045493#1 -1491172369#1 -1491172369#0 -824158743#2 38359868#1 1491183966#0 1491183966#1 1461641459#1 115561168#1 115561168#2 115561168#3 115561168#4 115561168#5" />
    </vehicle>
    <vehicle id="truck_p0_b_49" type="truck_p0_b__truck" depart="220.54" departLane="best" departSpeed="max">
        <route edges="115561082#0 -1461641433#3 -1461641433#2 -1461641433#1 -1461641433#0 -1461641457#1 -1461641457#0 -1461641458#3 -1461641458#2 -1461641458#1 417228502#1 417228502#2 1491172359#0 -1491172360#1 -38393868#2 -38393868#1 -38393868#0 -1491172361#2 38359868#1 1491183966#0 1491183966#1 410529592#1 1461641452#1 988510421 1461641451#0 1461641451#1 410529595#0 410529595#1 725287636#0" />
    </vehicle>
    <vehicle id="truck_p0_b_50" type="truck_p0_b__truck" depart="225.04" departLane="best">
        <route edges="114531734#1 -1461641442#0 417309446#0 417309446#2 646265608 170772575 1004737860 545148171#0 -1004744416#1 -1004744417 -38375826 -1004744419 -875071472 -1087007031 -875070295 -875070294 -1004744421 -38393865 -1125937899#1 -1125937899#0 -1214310714" />
    </vehicle>
    <vehicle id="truck_p0_b_51" type="truck_p0_b__truck" depart="229.54" departLane="best" departSpeed="max">
        <route edges="266157747 203589978#2 203589978#3 203589978#4 203589978#6 1461641444#0 417309446#0 417309446#2 646265608 170772575 1004737860 545148171#0 -1004744416#1 -1004744417 -38375826 -1004744419 -875071472 -1087007031 -875070295 -875070294 -1004744421 -38393865 -1125937899#1 -1125937899#0 -1214310714 -875074258 694609277#0 1099670074#1 1309272820 38393992#1 38393992#3 1461641434#1 1461641436 1461641435 184745185#0 184745185#1 184745185#2 184745185#3 184745185#5 1461641458#1 1461641458#2 1461641458#3 1461641457#0 1461641457#1 1461641433#0 1461641433#1 1461641433#2 1461641433#3 103426225#0 114614791" />
    </vehicle>
    <vehicle id="truck_p0_b_52" type="truck_p0_b__truck" depart="234.04" departLane="best">
        <route edges="115561163#0 115561163#1 372020013#1 372020014 -723312334#3 -723312334#1 -723312334#0 -1033645484 -1033645486#0 -38359862 694603074#0 694603074#2 694603074#3 1462125970 1030215636 1030215635 694603075#4 694603075#5 694603075#6 694603075#7 694603075#1 694603076#0 694603076#1 1423673547#0 1423673547#1 38359865#0 266143653 824174714 -1423673546 824174716 1423662169#0 548247853#2 1461641388 249079039#0 249079039#1 -116457542#4 348587225#1" />
    </vehicle>
    <vehicle id="truck_p0_b_53" type="truck_p0_b__truck" depart="238.54" departLane="best" departSpeed="max">
        <route edges="-115684382 -1137637521#1 115684389#2 1491183962#1 1068837569 203589972#2 -38359845#1 -38359845#0 -1004737861#2 -1004744416#1 -1004744417 -38375826 -1004744419 -875071472 -1087007031 -875070295 -875070294 -1004744421 -38393865 -1125937899#1 -1125937899#0 -1214310714 -875074258 694609277#0 1099670074#1 1309272820 38393992#1 38393992#3 1461641434#1 1461641436 -38393993#0" />
    </vehicle>
    <vehicle id="truck_p0_b_54" type="truck_p0_b__truck" depart="243.04" departLane="best" departSpeed="max">
        <route edges="266143646#0 417235727#0 417235727#2 417235727#3 266143645#1 266143645#3 -87494509#3 -87494509#1 -87494509#0 -1057888578 725287635#6 725287635#1 203589970#0 203589970#1 203589970#2 203589970#3 203589970#4 203589949#1 203589949#2 203589949#3 1420160204 1461641460 203589962#0 203589962#1 -1461641453#0 -1491183966#0 -38359868#2 1491172361#1 38393868#0 38393868#1 38393868#2 1491172360#0 99682907#2 1491172357#1" />
    </vehicle>
    <vehicle id="truck_p0_b_55" type="truck_p0_b__truck" depart="247.54" departLane="best">
        <route edges="108899907#2 1420160202 203589949#2 203589949#3 1420160204 1461641460 203589962#0 203589962#1 410529592#1 1461641452#1 988510421 1461641451#0 1461641451#1 410529595#0 410529595#1 725287636#0 725287636#1 725287636#2 725287635#3 725287635#4 725287635#5 1057888578 87494509#0 87494509#1 87494509#2 87494509#5 87494509#6 -38691390#4 -38691390#2 -723312334#8 -723312334#7 -723312334#6 115560895#0 115560895#1 115560895#2 115560895#3 115560895#4 115560895#5 115560895#6 115560895#7 115560896 624356721#0 624356721#1 115560897" />
    </vehicle>
    <vehicle id="truck_p0_b_56" type="truck_p0_b__truck" depart="252.04" departLane="best" departSpeed="max">
        <route edges="-422195701 108885733#3 -38393870#4 -723312334#8 -723312334#7 -723312334#6 -723312334#4 -723312334#3 -723312334#1 -723312334#0 -1033645484 -1033645486#0 -38359862 -1473695733 38393862 203589971#1 203589971#2 931405746 931388877 203589972#0 203589972#1 203589972#2 -38359845#1 -38359845#0 -1004737861#2 -1004744416#1 -1004744417 115684389#1 1137637521#1 115684382" />
    </vehicle>
    <vehicle id="truck_p0_b_57" type="truck_p0_b__truck" depart="256.54" departLane="best">
        <route edges="87494508#4 87494508#5 1461641449#0 1461641449#1 1462125970 1030215636 1030215635 694603075#4 694603075#5 694603075#6 694603072 -1428233169 -1104045493#1 -1491172369#1 -1491172369#0 -824158743#2 -203589976#7 -203589976#4 -203589976#3 -203589976#1 -203589976#0" />
    </vehicle>
    <vehicle id="truck_p0_b_58" type="truck_p0_b__truck" depart="261.04" departLane="best">
        <route edges="1491172365#2 1491172365#3 -243006566#4 -243006566#3 115560899#0 115560899#1 -1491172357#1 -99682907#3 -1491172360#1 -38393868#2 -38393868#1 -38393868#0 -1491172361#2 38359868#1 1491183966#0 1491183966#1 410529592#1 1461641452#1 988510421 1461641451#0 1461641451#1 410529595#0 410529595#1 725287636#0 725287636#1 725287636#2 725287635#3 725287635#4 725287635#5 1057888578 87494509#0 87494509#1 87494509#2 87494509#5 87494509#6 115561170#0 115561170#1 108885733#0 -108882988" />