<?xml version='1.0' encoding='UTF-8'?>
<routes>
    <vType id="passenger_p0_b__passenger" vClass="passenger" />
    <vehicle id="passenger_p0_b_0" type="passenger_p0_b__passenger" depart="0.00" departLane="best" departSpeed="max">
        <route edges="-424514808 116980609#1 116980609#2 116980609#3 -875027029#2 -875027029#1 -875027029#0 -875027030 -38393869#1 -38393869#0 -1125927213#2 -1125927213#1 -1125927213#0 38691414#1 885699408 1100674755 203589972#0 203589972#1 203589972#2 -38359845#1 -38359845#0 -1004737861#2 -545148171#1 -1004737860 115561673#1 115561673#2 115561673#3 115561673#4" />
    </vehicle>
    <vehicle id="passenger_p0_b_1" type="passenger_p0_b__passenger" depart="0.87" departLane="best" departSpeed="max">
        <route edges="-115673859#1 875070295 1087007031 875071472 1004744419 38375826 -38375826 -1004744419 -875071472 -1087007031 -875070295 -875070294 -1004744421 -38393865 -1125937899#1 -1125937899#0 -1214310714 -875074258 694609277#0 1099670074#1 1309272820 38393992#1 38393992#3 1461641434#1 1461641436 1461641435 184745185#0 184745185#1 184745185#2 184745185#3 184745185#5 1057883200#1" />
    </vehicle>
    <vehicle id="passenger_p0_b_2" type="passenger_p0_b__passenger" depart="1.73" departLane="best">
        <route edges="-115561673#3 -115561673#2 -115561673#1 1004737860 545148171#0 -1004744416#1 -1004744417 -38375826 -1004744419 -875071472 -1087007031 -875070295 -875070294 -1004744421 -38393865 -1125937899#1 -1125937899#0 -1214310714 -875074258 694609277#0 1099670074#1 1309272820 38393992#1 38393992#3 1461641434#1 1461641436 1461641435 184745185#0 184745185#1 184745185#2 184745185#3 184745185#5 1461641458#1 1461641458#2 1461641458#3 1461641457#0 1461641457#1 1461641433#0 1461641433#1 1461641433#2 1461641433#3 103426225#0 103426225#1 103426225#2 103426225#4" />
    </vehicle>
    <vehicle id="passenger_p0_b_3" type="passenger_p0_b__passenger" depart="2.60" departLane="best" departSpeed="max">
        <route edges="-624091858#3 -624091858#2 -624091858#1 -624091858#0 112602521#1 -875074258 694609277#0 548247853#2 1461641388 249079039#0 249079039#1 243006565#1 115672673#0 115672673#1 243006968#0 243006968#1" />
    </vehicle>
    <vehicle id="passenger_p0_b_4" type="passenger_p0_b__passenger" depart="3.46" departLane="best">
        <route edges="-1125937900#1 -1125937900#0 694603078#0 694603078#1 694603075#6 694603072 -1428233169 -1104045493#1 -1491172369#1 -1491172369#0 -824158743#2 -203589976#7 -203589976#4 -203589976#3 -203589976#1 -203589976#0 38393993#0 1461641435 184745185#0 184745185#1 184745185#2 184745185#3 184745185#5 417228502#1 417228502#2 1491172359#0" />
    </vehicle>
    <vehicle id="passenger_p0_b_5" type="passenger_p0_b__passenger" depart="4.33" departLane="best" departSpeed="max">
        <route edges="-1461641387 -116451461#1 824174717#1 1099670074#1 1309272820 38393992#1 38393992#3 -1491172360#1 -38393868#2 -38393868#1 -38393868#0" />
    </vehicle>
    <vehicle id="passenger_p0_b_6" type="passenger_p0_b__passenger" depart="5.19" departLane="best">
        <route edges="184745185#5 417228502#1 417228502#2 1491172359#0 -1461641437 -38393992#2 -1099670076#1 1099670075#0 38359851#1 1423673546 -824174714 824174715 38359865#2 1491183952 1068837568 1491183954#0 1491183954#1 1491183954#2 1461641447 1491183956 1491183957 1491183958#1 38359850#1 1491183959 1491183960 1068837569 203589972#2 38655903#0 38655903#1 38655903#2 38655903#3 -38359857#2 -38359857#1 -38359857#0" />
    </vehicle>
    <vehicle id="passenger_p0_b_7" type="passenger_p0_b__passenger" depart="6.06" departLane="best" departSpeed="max">
        <route edges="38359857#0 38359857#1 38359857#2 417114094#0 417114094#1 417192337#0 417192337#1 417192337#2 38691389#0 38691389#1 931378515#0 931378515#1 417235733#0 417235733#1 101152389 1479274894 1473695733 694603074#0 694603074#2 694603074#3 1462125970 1030215636 1030215635 694603075#4 694603077#0 694603077#1 1125937900#0 1125937900#1 38393860#0 725287636#0 203589973#1 203589973#3 203589973#4 1420160205 203589949#5 203589949#1 203589949#2 203589949#3 1420160204 1461641460 203589962#0 203589962#1" />
    </vehicle>
    <vehicle id="passenger_p0_b_8" type="passenger_p0_b__passenger" depart="6.92" departLane="best" departSpeed="max">
        <route edges="-115561673#4 -115561673#3 -115561673#2 -115561673#1 -170772575 -135704149 -417309446#2 -417309446#1 203589977#1 114531734#2" />
    </vehicle>
    <vehicle id="passenger_p0_b_9" type="passenger_p0_b__passenger" depart="7.79" departLane="best" departSpeed="max">
        <route edges="1491183963 115684389#2 1491183962#1 1068837569 203589972#2 -38359845#1 -38359845#0 -1004737861#2 -1004744416#1 -1004744417 -38375826 -1004744419 -875071472 -1087007031 -875070295 -875070294 -1004744421 -38393865 -1125937899#1 -1125937899#0 -1214310714 -875074258 694609277#0 1099670074#1 1309272820 38393992#1 38393992#3 99682907#2 1491183943#1 1491183944#0 1491183944#1 1491183944#2 1491183944#3 -683745965#1 -683745965#0" />
    </vehicle>
    <vehicle id="passenger_p0_b_10" type="passenger_p0_b__passenger" depart="8.66" departLane="best">
        <route edges="-1491172372#1 -1491172372#0 -988510421 -1461641452#1 -1461641452#0 -1461641453#0 -1491183966#0 -38359868#2 1491172361#1 38393868#0 38393868#1 38393868#2 1491172360#0 99682907#2 1491172357#1 243006970#1 1491172358 -547154355#3 -547154355#2 -547154355#1 -547154355#0" />
    </vehicle>
    <vehicle id="passenger_p0_b_11" type="passenger_p0_b__passenger" depart="9.52" departLane="best">
        <route edges="203589969#1 203589969#2 203589969#3 -266143655#10 -266143655#9 -266143655#8 -266143655#7 -266143655#6 1461641461 108899907#1 108899907#2 1420160202 203589949#2 203589949#3 1420160204 1461641460 203589962#0 203589962#1 410529592#1 1461641452#1 988510421 1461641451#0 1461641451#1 410529595#0 410529595#1 725287636#0 725287636#1 725287636#2 725287635#3 164415954#0 164415954#1 164415954#2 1461641450#1 1461641450#2 1461641450#3 266143610#4 87494508#0" />
    </vehicle>
    <vehicle id="passenger_p0_b_12" type="passenger_p0_b__passenger" depart="10.39" departLane="best" departSpeed="max">
        <route edges="1013138963#0 116457542#2 348587225#1 115560899#0 115560899#1 243006970#1 1491172358 547154356#0 547154356#1" />
    </vehicle>
    <vehicle id="passenger_p0_b_13" type="passenger_p0_b__passenger" depart="11.25" departLane="best">
        <route edges="38393875#1 -38393870#4 -723312334#8 -723312334#7 -723312334#6 -723312334#4 -723312334#3 -723312334#1 -723312334#0 -1033645484 -1033645486#0 -38359862 -1473695733 38393862 203589971#1 203589971#2 931405746 931388877 203589972#0 203589972#1 203589972#2 -38359845#1 -38359845#0 -1004737861#2 -545148171#1 -1004737860 -170772575 -135704149 -417309446#2 -417309446#1 203589977#1" />
    </vehicle>
    <vehicle id="passenger_p0_b_14" type="passenger_p0_b__passenger" depart="12.12" departLane="best">
        <route edges="266143650#2 115561175#1 1423673547#0 1423673547#1 38359865#0 38359865#1 38359865#2 1491183952 1068837568 1491183954#0 1491183954#1 1491183954#2 38375823#0 38375823#1 1365389583#0 1365389583#1 1365389583#2 1461641462 723507899 1491183946#1 1491183946#2" />
    </vehicle>
    <vehicle id="passenger_p0_b_15" type="passenger_p0_b__passenger" depart="12.98" departLane="best">
        <route edges="1420160202 203589949#2 203589949#3 1420160204 1461641460 203589962#0 203589962#1 410529592#1 1461641452#1 988510421 1461641451#0 1461641451#1 410529595#0 410529595#1 725287636#0 108646023#0 108646023#1 108646023#3 1461641449#0 1461641449#1 203589954#1 203589954#2 1491183954#1 1491183954#2 1461641447 1491183956 1491183957 1491183958#1 38359850#1 1491183959 1491183960 1068837569 203589972#2 -38359845#1 -38359845#0 -1004737861#2 -545148171#1 -1004737860 -170772575 -135704149 114150961#1 114150961#2 114150961#3 114150961#4 1409708183 -114532723#2 -114532723#0" />
    </vehicle>
    <vehicle id="passenger_p0_b_16" type="passenger_p0_b__passenger" depart="13.85" departLane="best">
        <route edges="547154357#0 547154357#1 116457542#1 116457542#2 348587225#1 115560899#0 115560899#1 -1491172357#1 -99682907#3 -1491172360#1 -38393868#2 630462798#1 630462798#2 630462798#4 630462798#5" />
    </vehicle>
    <vehicle id="passenger_p0_b_17" type="passenger_p0_b__passenger" depart="14.71" departLane="best">
        <route edges="-875027029#2 -875027029#1 -875027029#0 115560904#0 108933163 108933164 115560954 115561161#1 115561161#2 254747697#0 254747697#2 417192344#2 417192344#3 101152389 1479274894 1473695733 694603074#0 694603074#2 694603074#3 1462125970 1030215636 1030215635 694603075#4 694603075#5 694603075#6 694603072 -1428233169 -1104045493#1 -1491172369#1 -1491172369#0 -824158743#2 1491172361#1 38393868#0 38393868#1 38393868#2 1491172360#0" />
    </vehicle>
    <vehicle id="passenger_p0_b_18" type="passenger_p0_b__passenger" depart="15.58" departLane="best">
        <route edges="1491172360#0 -1461641437 -38393992#2 -1099670076#1 1099670075#0 548247853#2 116451461#1 182017479#1 -624091858#1 -624091858#0 -911225805#1" />
    </vehicle>
    <vehicle id="passenger_p0_b_19" type="passenger_p0_b__passenger" depart="16.44" departLane="best" departSpeed="max">
        <route edges="108045029#0 108045029#1 725287635#1 725287635#2 725287635#3 725287635#4 725287635#5 1057888578 87494509#0 87494509#1 87494509#2 87494509#5 87494509#6 1028732094#0 -417235727#3 -417235727#2 -417235727#1 1125927214#2 1125927214#3 116625957#0 116625957#1 459456563 459456564#0 422195693#1" />
    </vehicle>
    <vehicle id="passenger_p0_b_20" type="passenger_p0_b__passenger" depart="17.31" departLane="best" departSpeed="max">
        <route edges="-1461641442#1 -1461641442#0 417309446#0 417309446#2 646265608 170772575 1004737860 545148171#0 1004737861#1 38359845#0 38359845#1 38655903#0 38655903#1 38655903#2 38655903#3 417114094#0 417114094#1 417192337#0 417192337#1 417192337#2 38691389#0 38691389#1 931378515#0 931378515#1 417235733#0 417235733#1 101152389 1479274894 1473695733 1033645489#0 1033645488 1033645485 723312334#0 723312334#1 723312334#3 115560947#0" />
    </vehicle>
    <vehicle id="passenger_p0_b_21" type="passenger_p0_b__passenger" depart="18.18" departLane="best">
        <route edges="38691414#1 931378515#0 931378515#1 417235733#0 417235733#1 101152389 1479274894 1473695733 694603074#0 694603074#2 694603074#3 1462125970 1030215636 1030215635 694603075#4 694603075#5 694603075#6 694603072 -1428233169 -1104045493#1 -1491172369#1 -1491172369#0 -824158743#2 1491172361#1 38393868#0 38393868#1 38393868#2 1491172360#0 99682907#2 1491172357#1 243006970#1 1491172358 547154356#0 547154356#1 1461641392 148331423" />
    </vehicle>
    <vehicle id="passenger_p0_b_22" type="passenger_p0_b__passenger" depart="19.04" departLane="best">
        <route edges="-108934130 115560903#1 115560903#2 115560903#3 115560903#4 -1125927213#1 115561161#0 115561161#1 372020013#0 372020013#1 372020014 723312334#4 723312334#5 723312334#7 723312334#8 38691390#0 38691390#3 1028732094#0 -417235727#3 1062204371 453743055" />
    </vehicle>
    <vehicle id="passenger_p0_b_23" type="passenger_p0_b__passenger" depart="19.91" departLane="best">
        <route edges="-459456563 -116625957#1 -116625957#0 -1125927214#3 -1125927214#2 417235727#0 417235727#2 417235727#3 266143645#1 266143645#3 -87494509#3 -87494509#1 -87494509#0 -1057888578 725287635#6 725287635#1 725287635#2 -725287636#2 -725287636#1 -725287636#0 -38393860#0 -1125937900#1 -1125937900#0 694603078#0 694603078#1 694603075#6 694603075#7 694603075#1 694603076#0 694603076#1 1423673547#0 1423673547#1 38359865#0 266143653 824174714 -1423673546 824174716 1423662169#0 548247853#2 116451461#1 182017479#1 -624091858#1 -624091858#0 -911225805#1" />
    </vehicle>
    <vehicle id="passenger_p0_b_24" type="passenger_p0_b__passenger" depart="20.77" departLane="best" departSpeed="max">
        <route edges="-203589956#1 203589968#1 203589968#4 203589964#0 824174716 1423662169#0 1099670074#1 1309272820 38393992#1 38393992#3 99682907#2 1491172357#1 243006970#1 1491172358 547154356#0 547154356#1 1461641392 148331423" />
    </vehicle>
    <vehicle id="passenger_p0_b_25" type="passenger_p0_b__passenger" depart="21.64" departLane="best" departSpeed="max">
        <route edges="-115514116#5 203589968#4 203589964#0 1423673546 -824174714 824174715 38359865#2 1423673548#0 38359852#0 38359852#1 38359852#2 694603075#3 694603075#4 694603077#0 694603077#1 1125937900#0 1125937900#1 38393860#0 725287636#0 725287636#1 725287636#2 725287635#3 164415954#0 164415954#1 164415954#2 1461641450#1 1461641450#2 1461641450#3 266143610#4 266143610#5 266143651#0 266143651#1 266143651#2 266143651#3 723313369#4" />
    </vehicle>
    <vehicle id="passenger_p0_b_26" type="passenger_p0_b__passenger" depart="22.50" departLane="best" departSpeed="max">
        <route edges="-115684382 -1137637521#1 115684389#2 1491183962#1 1068837569 203589972#2 -38359845#1 -38359845#0 -1004737861#2 -1004744416#1 -1004744417 -38375826 -1004744419 -875071472 -1087007031 -875070295 -875070294 -1004744421 -38393865 -1125937899#1 -1125937899#0 -1214310714 -875074258 694609277#0 1099670074#1 1309272820 38393992#1 38393992#3 99682907#2 1491172357#1 243006970#1 1491172358" />
    </vehicle>
    <vehicle id="passenger_p0_b_27" type="passenger_p0_b__passenger" depart="23.37" departLane="best" departSpeed="max">
        <route edges="-424514814#1 -424514814#0 116980609#2 116980609#3 38393875#0 38393875#1 -38393870#4 -723312334#8 -723312334#7 -723312334#6 115560895#0 115560895#1" />
    </vehicle>
    <vehicle id="passenger_p0_b_28" type="passenger_p0_b__passenger" depart="24.23" departLane="best">
        <route edges="646265607#0 646265608 170772575 1004737860 545148171#0 1004737861#1 38359845#0 38359845#1 38655903#0 38655903#1 38655903#2 38655903#3 417114094#0 417114094#1 38375846#0 38375846#1 38375846#2 38375846#3 931220687#0 931220687#1 931220687#2 1125927213#0 1125927213#1 1125927213#2 38393869#0 38393869#1 875027030 875027029#0 875027029#1 875027029#2" />
    </vehicle>
    <vehicle id="passenger_p0_b_29" type="passenger_p0_b__passenger" depart="25.10" departLane="best" departSpeed="max">
        <route edges="1461641443#0 417309446#0 417309446#2 646265608 170772575 1004737860 545148171#0 -1004744416#1 -1004744417 -38375826 -1004744419 -875071472 -1087007031 -875070295 -875070294 -1004744421 -38393865 -1125937899#1 -1125937899#0 -1214310714 -875074258 694609277#0 548247853#2 116451461#1" />
    </vehicle>
    <vehicle id="passenger_p0_b_30" type="passenger_p0_b__passenger" depart="25.97" departLane="best">
        <route edges="-1491172357#1 -99682907#3 -1461641437 -38393992#2 -1099670076#1 1099670075#0 694609276 875074258 1214310714 1125937899#0 1125937899#1 1461641439 1004744421 875070294 115673859#1" />
    </vehicle>
    <vehicle id="passenger_p0_b_31" type="passenger_p0_b__passenger" depart="26.83" departLane="best">
        <route edges="410529592#1 1461641452#1 988510421 1461641451#0 1461641451#1 410529595#0 410529595#1 725287636#0 725287636#1 725287636#2 725287635#3 725287635#4 725287635#5 725287635#6 -108045029#1 -108045029#0" />
    </vehicle>
    <vehicle id="passenger_p0_b_32" type="passenger_p0_b__passenger" depart="27.70" departLane="best">
        <route edges="203589976#3 203589976#4 203589976#6 1491172361#1 38393868#0 38393868#1 38393868#2 1491172360#0 99682907#2 1491172357#1 243006970#1 1491172358 1491172365#1 1491172365#2 1491172365#3 547154357#0 547154357#1 547154357#3" />
    </vehicle>
    <vehicle id="passenger_p0_b_33" type="passenger_p0_b__passenger" depart="28.56" departLane="best">
        <route edges="-115561180#2 -115561180#0 -1491183944#3 -1491183944#2 -1491183944#1 -1491183944#0 -1491183943#1 -99682907#3 1461641434#1 1461641436 1461641435 184745185#0 184745185#1 184745185#2 184745185#3 184745185#5 1461641458#1 1461641458#2 1461641458#3 1461641457#0 1461641457#1 1461641433#0 1461641433#1" />
    </vehicle>
    <vehicle id="passenger_p0_b_34" type="passenger_p0_b__passenger" depart="29.43" departLane="best" departSpeed="max">
        <route edges="1013138963#0 116457542#2 116457542#3 243006565#1 115672673#0 115672673#1 243006968#0 243006968#1 -38393992#2 -1099670076#1 1099670075#0 694609276 875074258 1214310714 1125937899#0 1125937899#1 1461641439 1004744421 875070294 875070295 1087007031 875071472 1004744419 38375826 1004744417 1004744416#0 38375844#1 38375844#3 38375844#4 1462125975" />
    </vehicle>
    <vehicle id="passenger_p0_b_35" type="passenger_p0_b__passenger" depart="30.29" departLane="best" departSpeed="max">
        <route edges="-115673859#1 875070295 1087007031 875071472 1004744419 38375826 -38375826 -1004744419 -875071472 -1087007031 -875070295 -875070294 -1004744421 -38393865 -1125937899#1 -1125937899#0 -1214310714 -875074258 694609277#0 1099670074#1 1309272820 38393992#1 38393992#3 1461641434#1 1461641436 1461641435 184745185#0 184745185#1" />
    </vehicle>
    <vehicle id="passenger_p0_b_36" type="passenger_p0_b__passenger" depart="31.16" departLane="best" departSpeed="max">
        <route edges="38359857#0 38359857#1 38359857#2 417114094#0 417114094#1 417192337#0 417192337#1 417192337#2 38691389#0 38691389#1 931378515#0 931378515#1 417235733#0 417235733#1 101152389 1479274894 1473695733 1033645489#0 1033645488 1033645485 723312334#0 723312334#1 723312334#3 723312334#4 115560895#0 108932067" />
    </vehicle>
    <vehicle id="passenger_p0_b_37" type="passenger_p0_b__passenger" depart="32.02" departLane="best" departSpeed="max">
        <route edges="266157747 203589978#2 203589978#3 203589978#4 203589978#6 1461641444#0 417309446#0 417309446#2 646265608 170772575 1004737860 545148171#0 1004737861#1 38359845#0 38359845#1 38655903#0 38655903#1 38655903#2 38655903#3 417114094#0 417114094#1 417192337#0 417192337#1 417192337#2 38691389#0 38691389#1 931378515#0 931378515#1 417235733#0 417235733#1 101152389 1479274894 1473695733 694603074#0 694603074#2 694603074#3 1462125970 1030215636 1030215635 694603075#4 694603077#0 694603077#1 1125937900#0 1125937900#1 38393860#0 725287636#0 203589973#1 203589973#3 203589973#4 1420160205 203589949#5 203589949#1 -1420160202 -108899907#2 -108899907#1" />
    </vehicle>
    <vehicle id="passenger_p0_b_38" type="passenger_p0_b__passenger" depart="32.89" departLane="best">
        <route edges="-1062204371 417235727#3 266143645#1 266143645#3 -87494509#3 -87494509#1 -87494509#0 -1057888578 725287635#6 725287635#1 725287635#2 -725287636#2 -725287636#1 108646023#0 108646023#1 1029701448 108686053#1" />
    </vehicle>
    <vehicle id="passenger_p0_b_39" type="passenger_p0_b__passenger" depart="33.76" departLane="best">
        <route edges="-115561673#3 -115561673#2 -115561673#1 1004737860 545148171#0 -1004744416#1 -1004744417 -38375826 -1004744419 -875071472 -1087007031 -875070295 -875070294 -1004744421 -38393865 -1125937899#1 -1125937899#0 -1214310714 -875074258 694609277#0 1099670074#1 1309272820 38393992#1 38393992#3 1461641434#1 1461641436 1461641435 184745185#0 184745185#1 184745185#2 184745185#3 184745185#5 1461641458#1 1461641458#2 1461641458#3" />
    </vehicle>
    <vehicle id="passenger_p0_b_40" type="passenger_p0_b__passenger" depart="34.62" departLane="best">
        <route edges="372020013#1 372020014 723312334#4 723312334#5 723312334#7 723312334#8 38691390#0 38691390#3 -87494509#6 -87494509#5 -87494509#3 -87494509#1 -87494509#0 -1057888578 725287635#6 725287635#1 725287635#2 725287635#3 164415954#0 164415954#1 164415954#2" />
    </vehicle>
    <vehicle id="passenger_p0_b_41" type="passenger_p0_b__passenger" depart="35.49" departLane="best">
        <route edges="417192344#2 417192344#3 203589961 203589971#1 203589971#2 931405746 931388877 203589972#0 203589972#1 203589972#2 38655903#0 38655903#1 38655903#2 38655903#3 -38359857#2 -38359857#1" />
    </vehicle>
    <vehicle id="passenger_p0_b_42" type="passenger_p0_b__passenger" depart="36.35" departLane="best">
        <route edges="723313369#6 138652733 723313368 38359894 723313398 1491183950#1 -1033645484 -1033645486#0 -38359862 694603074#0 694603074#2 694603074#3 1462125970 1030215636 1030215635 694603075#4 694603075#5 694603075#6 694603075#7 694603075#1 694603076#0 694603076#1 1423673547#0 1423673547#1 38359865#0 266143653 824174714 -1423673546 824174716 1423662169#0 1099670074#1" />
    </vehicle>
    <vehicle id="passenger_p0_b_43" type="passenger_p0_b__passenger" depart="37.22" departLane="best" departSpeed="max">
        <route edges="115561079 203589978#4 203589978#6 1461641444#0 417309446#0 417309446#2 646265608 170772575 1004737860 545148171#0 1004737861#1 38359845#0 38359845#1 38655903#0 38655903#1 38655903#2 38655903#3 417114094#0 417114094#1 417192337#0 417192337#1 417192337#2 38691389#0 38691389#1 931378515#0 931378515#1 417235733#0 417235733#1 101152389 1479274894 1473695733 694603074#0 694603074#2 694603074#3 203589954#1 203589954#2 203589957#1 203589956#1" />
    </vehicle>
    <vehicle id="passenger_p0_b_44" type="passenger_p0_b__passenger" depart="38.08" departLane="best">
        <route edges="1491183946#0 1491183946#1 1491183946#2 38359866#0 38359866#1 38359866#2 87494508#4 87494508#5 1461641449#0 1461641449#1 1462125970 1030215636 1030215635 694603075#4 694603077#0 694603077#1 1125937900#0 1125937900#1 38393860#0 725287636#0 203589973#1 203589973#3 203589973#4 1420160205 203589949#5 203589949#1 203589949#2 203589949#3 1420160204 1461641460" />
    </vehicle>
    <vehicle id="passenger_p0_b_45" type="passenger_p0_b__passenger" depart="38.95" departLane="best">
        <route edges="38393875#1 -38393870#4 -723312334#8 -723312334#7 -723312334#6 -723312334#4 -723312334#3 -723312334#1 -723312334#0 -1033645484 -1033645486#0 -38359862 694603074#0 694603074#2 694603074#3 1462125970 1030215636 1030215635 694603075#4 694603075#5 694603075#6 694603072 -1428233169 -1104045493#1 -1491172369#1 -1491172369#0 -824158743#2 1491172361#1 38393868#0 38393868#1 38393868#2 1491172360#0 99682907#2 1491183943#1 1491183944#0 1491183944#1 1491183944#2" />
    </vehicle>
    <vehicle id="passenger_p0_b_46" type="passenger_p0_b__passenger" depart="39.81" departLane="best" departSpeed="max">
        <route edges="570104370 931220687#0 931220687#1 931220687#2 417192344#0 417192344#1 417192344#2 417192344#3 101152389 1479274894 1473695733 694603074#0 694603074#2 694603074#3 203589954#1 203589954#2 1491183954#1 1491183954#2 1461641447 1491183956" />
    </vehicle>
    <vehicle id="passenger_p0_b_47" type="passenger_p0_b__passenger" depart="40.68" departLane="best">
        <route edges="1365389583#0 1365389583#1 1365389583#2 694603074#3 203589954#1 203589954#2 1491183954#1 1491183954#2 1461641447 1491183956 1491183957 1491183958#1 38359850#1 1491183959 1491183960 1068837569 203589972#2 -38359845#1 -38359845#0 -1004737861#2 -545148171#1 -1004737860 -170772575 -135704149 114150961#1 114150961#2 114150961#3 114150961#4 1409708183 -114532723#2 -114532723#0" />
    </vehicle>
    <vehicle id="passenger_p0_b_48" type="passenger_p0_b__passenger" depart="41.55" departLane="best">
        <route edges="1461641433#0 1461641433#1 1461641433#2 1461641433#3 103426225#0 103426225#1 103426225#2 103426225#4 103426225#6 1026606158 -875149911#2 -875149911#0 -459456564#4 -459456564#2 -459456564#1 -459456564#0 -459456563 -116625957#1 -116625957#0 -1125927214#3 -1125927214#2 417235727#0 417235727#2 417235727#3 266143645#1 266143645#3 -87494509#3 -87494509#1 -87494509#0 -1057888578 725287635#6 -108045029#1" />
    </vehicle>
    <vehicle id="passenger_p0_b_49" type="passenger_p0_b__passenger" depart="42.41" departLane="best">
        <route edges="-1461641457#0 -1461641458#3 -1461641458#2 -1461641458#1 417228502#1 417228502#2" />
    </vehicle>
    <vehicle id="passenger_p0_b_50" type="passenger_p0_b__passenger" depart="43.28" departLane="best" departSpeed="max">
        <route edges="694756702#0 115514716#1 115514716#2 115514716#3 1428233169 694603073 694603075#1 694603075#2 694603075#3 694603075#4 694603077#0 694603077#1 1125937900#0 1125937900#1 38393860#0 725287636#0 725287636#1 725287636#2 725287635#3 725287635#4 725287635#5 1057888578 87494509#0 87494509#1 87494509#2 87494509#5 87494509#6 1028732094#0 -417235727#3 -417235727#2 -417235727#1 38691386#1" />
    </vehicle>
    <vehicle id="passenger_p0_b_51" type="passenger_p0_b__passenger" depart="44.14" departLane="best">
        <route edges="38359849#1 38359864#1 1491183957 1491183958#1 38359850#1 1491183959 38375838 38375848 417235733#0 417235733#1 101152389 1479274894 1473695733 694603074#0 694603074#2 694603074#3 1462125970 1030215636 1030215635 694603075#4 694603075#5 694603075#6 694603075#7 694603075#1 694603076#0 694603076#1 -115561175#1 -266143623#1 1491172367#2 1491172367#3 1491172367#4 243007177#1 -108895901#1 -108895901#0" />
    </vehicle>
    <vehicle id="passenger_p0_b_52" type="passenger_p0_b__passenger" depart="45.01" departLane="best">
        <route edges="115560946#1 115560946#2 138652733 723313368 38359894 723313398 1491183950#1 -1033645484 -1033645486#0 -38359862 -1473695733 38393862 203589971#1 203589971#2 931405746 931388877 203589972#0 203589972#1 203589972#2 -38359845#1 -38359845#0 -1004737861#2 -1004744416#1 -1004744417 -38375826 -1004744419 -875071472 -1087007031 30951906#1" />
    </vehicle>
    <vehicle id="passenger_p0_b_53" type="passenger_p0_b__passenger" depart="45.87" departLane="best" departSpeed="max">
        <route edges="949547104 -949547103#0 417235727#3 -1028732094#1 -38691390#4 -38691390#2 -723312334#8 -723312334#7 -723312334#6 115560895#0 115560895#1 115560895#2 115560895#3 108933164 115560954 115561161#1" />
    </vehicle>
    <vehicle id="passenger_p0_b_54" type="passenger_p0_b__passenger" depart="46.74" departLane="best">
        <route edges="545148171#0 -1004744416#1 -1004744417 -38375826 -1004744419 -875071472 -1087007031 -875070295 -875070294 -1004744421 -38393865 -1125937899#1 -1125937899#0 -1214310714 -875074258 694609277#0 548247853#2 116451461#1 1461641387" />
    </vehicle>
    <vehicle id="passenger_p0_b_55" type="passenger_p0_b__passenger" depart="47.60" departLane="best" departSpeed="max">
        <route edges="1013138963#0 116457542#2 348587225#1 115560899#0 115560899#1 -1491172357#1 -99682907#3 1461641434#1 1461641436 1461641435 184745185#0 184745185#1 184745185#2 184745185#3 184745185#5 1461641458#1 1461641458#2 1461641458#3 1461641457#0 1461641457#1 1461641433#0 1461641433#1 1461641433#2 1461641433#3 103426225#0 103426225#1 103426225#2 103426225#4 103426225#6 1026606158 -875149911#2 -875149911#0 -459456564#4 -459456564#2 -459456564#1 422195693#1" />
    </vehicle>
    <vehicle id="passenger_p0_b_56" type="passenger_p0_b__passenger" depart="48.47" departLane="best">
        <route edges="1491183962#1 1068837569 203589972#2 -38359845#1 -38359845#0 -1004737861#2 -545148171#1 -1004737860 115561673#1 115561673#2 -115560987" />
    </vehicle>
    <vehicle id="passenger_p0_b_57" type="passenger_p0_b__passenger" depart="49.33" departLane="best" departSpeed="max">
        <route edges="115561669#0 38375846#3 931220687#0 931220687#1 931220687#2 1125927213#0 115561161#0 115561161#1 372020013#0 372020013#1 372020014 723312334#4 115560895#0 108932067" />
    </vehicle>
    <vehicle id="passenger_p0_b_58" type="passenger_p0_b__passenger" depart="50.20" departLane="best">
        <route edges="266143655#4 266143655#5 1461641461 108899907#1 108899907#2 1420160202 203589949#2 203589949#3 1420160204 1461641460 203589962#0 203589962#1 410529592#1 1461641452#1 988510421 1461641451#0 1461641451#1 410529595#0 410529595#1 725287636#0 108646023#0 108646023#1 108646023#3 1461641449#0 1461641449#1 203589954#1 203589954#2 1491183954#1 1491183954#2 1461641447 1491183956 1491183957 1491183958#1 38359850#1 1491183959 1491183960 1068837569 203589972#2 -38359845#1 -38359845#0 -1004737861#2 -545148171#1 -1004737860 -170772575 -135704149 -417309446#2 -417309446#1 203589977#1 114531734#2" />
    </vehicle>
    <vehicle id="passenger_p0_b_59" type="passenger_p0_b__passenger" depart="51.07" departLane="best">
        <route edges="138652753#1 723313398 1491183950#1 -1033645484 -1033645486#0 -38359862 694603074#0 694603074#2 694603074#3 1462125970 1030215636 1030215635 694603075#4 694603075#5 694603075#6 694603075#7 694603075#1 694603076#0 694603076#1 1423673547#0 1423673547#1 38359865#0 266143653 824174714 -1423673546 824174716" />
    </vehicle>
    <vehicle id="passenger_p0_b_60" type="passenger_p0_b__passenger" depart="51.93" departLane="best">
        <route edges="1068837568 1491183954#0 1491183954#1 1491183954#2 1461641447 1491183956 1491183957 1491183958#1 38359850#1 1491183959 1491183960 1068837569 203589972#2 -38359845#1 -38359845#0 -1004737861#2 -545148171#1 -1004737860 -170772575 -135704149 -417309446#2 -417309446#1 203589977#1 1461641442#1" />
    </vehicle>
    <vehicle id="passenger_p0_b_61" type="passenger_p0_b__passenger" depart="52.80" departLane="best">
        <route edges="-243006970#1 -1491172357#1 -99682907#3 -1461641437 -38393992#2 -1099670076#1 1099670075#0 38359851#1 1423673546 -824174714 824174715 38359865#2 1491183952 1068837568 1491183954#0 1491183954#1 1491183954#2 1461641447 1491183956 1491183957 1491183958#1 38359850#1 1491183959 1491183960 1068837569 203589972#2 38655903#0 38655903#1 38655903#2 38655903#3 417114094#0 417114094#1 38375846#0 38375846#1 38375846#2 38375846#3 931220687#0" />
    </vehicle>
    <vehicle id="passenger_p0_b_62" type="passenger_p0_b__passenger" depart="53.66" departLane="best" departSpeed="max">
        <route edges="154717201#0 1461641464 1461641463 824174717#1 694609276 875074258 1214310714 1125937899#0 1125937899#1 1461641439 1004744421 875070294 875070295 1087007031 875071472" />
    </vehicle>
    <vehicle id="passenger_p0_b_63" type="passenger_p0_b__passenger" depart="54.53" departLane="best">
        <route edges="-1491172374 410529592#1 1461641452#1 988510421 1461641451#0 1461641451#1 410529595#0 410529595#1 725287636#0" />
    </vehicle>