<?xml version='1.0' encoding='UTF-8'?>
<routes>
    <vType id="motorcycle_p0_b__motorcycle" vClass="motorcycle" />
    <vehicle id="motorcycle_p0_b_0" type="motorcycle_p0_b__motorcycle" depart="0.00" departLane="best" departSpeed="max">
        <route edges="108045029#0 108045029#1 725287635#1 725287635#2 725287635#3 725287635#4 725287635#5 1057888578 87494509#0 87494509#1 87494509#2 87494509#5 87494509#6 1028732094#0 -417235727#3 -417235727#2 -417235727#1 1125927214#2 1125927214#3 116625957#0 116625957#1" />
    </vehicle>
    <vehicle id="motorcycle_p0_b_1" type="motorcycle_p0_b__motorcycle" depart="5.58" departLane="best">
        <route edges="-1461641452#0 -203589962#1" />
    </vehicle>
    <vehicle id="motorcycle_p0_b_2" type="motorcycle_p0_b__motorcycle" depart="11.16" departLane="best">
        <route edges="38359868#1 1491183966#0 1491183966#1 410529592#1 1461641452#1 988510421 1461641451#0 1461641451#1 410529595#0 410529595#1 725287636#0 725287636#1 725287636#2 725287635#3 725287635#4 725287635#5 725287635#6 -108045029#1 -108045029#0" />
    </vehicle>
    <vehicle id="motorcycle_p0_b_3" type="motorcycle_p0_b__motorcycle" depart="16.75" departLane="best">
        <route edges="-116650845#1 -116650845#0 203589973#3 203589973#4 1420160205 203589949#5 203589949#1 203589949#2 203589949#3 1420160204 1461641460 203589962#0 203589962#1 410529592#1 1461641452#1 988510421 1461641451#0 1461641451#1 410529595#0 410529595#1 725287636#0 725287636#1 725287636#2 725287635#3 164415954#0 164415954#1 164415954#2 1461641450#1 1461641450#2 1461641450#3 266143610#4 266143610#5 266143651#0 266143651#1 266143651#2 266143651#3 723313369#4 723313369#5 723313369#6 138652733 723313368 38359894 723313398 1491183950#1 -1033645484 -1033645486#0" />
    </vehicle>
    <vehicle id="motorcycle_p0_b_4" type="motorcycle_p0_b__motorcycle" depart="22.33" departLane="best">
        <route edges="1461641464 1461641463 824174717#1 694609276 875074258 1214310714 1125937899#0 1125937899#1 1461641439 1004744421 875070294 875070295 1087007031 875071472 1004744419 38375826 1004744417 1004744416#0 -545148171#1 -1004737860 115561673#1 115561673#2" />
    </vehicle>
    <vehicle id="motorcycle_p0_b_5" type="motorcycle_p0_b__motorcycle" depart="27.91" departLane="best">
        <route edges="-949547103#0 417235727#3 266143645#1 266143645#3 -87494509#3 1184728292 266143610#2 266143610#3 266143610#4 87494508#0 87494508#1 87494508#3 87494508#4 87494508#5 1461641449#0 1461641449#1 203589954#1 203589954#2 203589957#1 203589956#1" />
    </vehicle>
    <vehicle id="motorcycle_p0_b_6" type="motorcycle_p0_b__motorcycle" depart="33.49" departLane="best" departSpeed="max">
        <route edges="1461641443#0 203589977#1 -114531734#1 -115673962#1 -115673962#0" />
    </vehicle>
    <vehicle id="motorcycle_p0_b_7" type="motorcycle_p0_b__motorcycle" depart="39.07" departLane="best">
        <route edges="87494508#1 87494508#3 87494508#4 87494508#5 1461641449#0 1461641449#1 203589954#1 203589954#2 1491183954#1 1491183954#2 1461641447 1491183956 1491183957 1491183958#1 38359850#1 1491183959 38375838 38375848 417235733#0 417235733#1 -417192344#3 -417192344#2 -417192344#1 -417192344#0 -115561670#1 -115561670#0" />
    </vehicle>
    <vehicle id="motorcycle_p0_b_8" type="motorcycle_p0_b__motorcycle" depart="44.66" departLane="best">
        <route edges="1461641451#0 1461641451#1 410529595#0 410529595#1 725287636#0 725287636#1 725287636#2 725287635#3 725287635#4 725287635#5 1057888578 87494509#0 87494509#1 87494509#2 87494509#5 87494509#6 -38691390#4 -38691390#2 -723312334#8 -723312334#7 -723312334#6 115560895#0 115560895#1 115560895#2 115560895#3 115560895#4 38393869#1 875027030" />
    </vehicle>
    <vehicle id="motorcycle_p0_b_9" type="motorcycle_p0_b__motorcycle" depart="50.24" departLane="best" departSpeed="max">
        <route edges="-108932067 115560895#1 723312331 372020014 723312334#4 723312334#5 723312334#7 723312334#8 38691390#0 38691390#3 -87494509#6 -87494509#5 -87494509#3 -87494509#1 -108686154#1" />
    </vehicle>
    <vehicle id="motorcycle_p0_b_10" type="motorcycle_p0_b__motorcycle" depart="55.82" departLane="best">
        <route edges="115560895#1 723312331 372020014 -723312334#3 -723312334#1 -723312334#0 -1033645484 -1033645486#0 -38359862 694603074#0 694603074#2" />
    </vehicle>
    <vehicle id="motorcycle_p0_b_11" type="motorcycle_p0_b__motorcycle" depart="61.40" departLane="best">
        <route edges="-417192344#2 -417192344#1 -417192344#0 1125927213#0 1125927213#1" />
    </vehicle>
    <vehicle id="motorcycle_p0_b_12" type="motorcycle_p0_b__motorcycle" depart="66.98" departLane="best">
        <route edges="1491183954#0 1491183954#1 1491183954#2 38375823#0 38375823#1 1365389583#0 1365389583#1 1365389583#2 694603074#3 1462125970 1030215636 1030215635 694603075#4 694603077#0 694603077#1 1125937900#0 1125937900#1 38393860#0 725287636#0 725287636#1 725287636#2 725287635#3 725287635#4 725287635#5 1057888578 87494509#0 87494509#1 87494509#2 87494509#5 87494509#6 115561170#0 115561170#1 115561170#2 38691386#6 38691386#8" />
    </vehicle>
    <vehicle id="motorcycle_p0_b_13" type="motorcycle_p0_b__motorcycle" depart="72.57" departLane="best">
        <route edges="1491172367#4 115514716#1 115514716#2 115514716#3 1428233169 694603073 694603075#1 694603075#2 694603075#3 694603075#4 694603077#0 694603077#1 1125937900#0 1125937900#1 38393860#0 725287636#0 725287636#1 725287636#2 725287635#3 725287635#4 725287635#5 1057888578 87494509#0 87494509#1 87494509#2 87494509#5 87494509#6 1028732094#0 -417235727#3 949547103#0 -949547104" />
    </vehicle>
    <vehicle id="motorcycle_p0_b_14" type="motorcycle_p0_b__motorcycle" depart="78.15" departLane="best">
        <route edges="38375846#1 38375846#2 38375846#3 931220687#0 931220687#1 931220687#2 417192344#0 417192344#1 417192344#2 417192344#3 101152389 1479274894 1473695733 694603074#0 694603074#2 694603074#3 1462125970 1030215636 1030215635 694603075#4 694603075#5 694603075#6 694603075#7 694603075#1 694603076#0 694603076#1 -115561175#1 -266143623#1 1491172367#2" />
    </vehicle>
    <vehicle id="motorcycle_p0_b_15" type="motorcycle_p0_b__motorcycle" depart="83.73" departLane="best">
        <route edges="1365389583#2 694603074#3 1462125970 1030215636 1030215635 694603075#4 694603077#0 694603077#1 1125937900#0 1125937900#1 38393860#0 725287636#0 725287636#1 725287636#2 725287635#3 725287635#4 725287635#5 1057888578 87494509#0 87494509#1 87494509#2 87494509#5 87494509#6 1028732094#0 -417235727#3 -417235727#2 -417235727#1 1125927214#2 1125927214#3 116625957#0" />
    </vehicle>
    <vehicle id="motorcycle_p0_b_16" type="motorcycle_p0_b__motorcycle" depart="89.31" departLane="best">
        <route edges="266143655#8 266143655#9 266143655#10 -203589969#3 -203589969#2 -203589969#1 -203589969#0 -1420160203 203589949#3 1420160204 1461641460 203589962#0 203589962#1 1461641459#1 115561168#1 115561168#2 115561168#3 115561168#4 115561168#5 115561168#6 115561168#7 184745185#3" />
    </vehicle>
    <vehicle id="motorcycle_p0_b_17" type="motorcycle_p0_b__motorcycle" depart="94.89" departLane="best">
        <route edges="-875070294 -1004744421 -38393865 -1125937899#1 -1125937899#0 -1214310714 -875074258 694609277#0 38359851#1 1423673546 -824174714 824174715 38359865#2 1491183952 1068837568 1491183954#0 1491183954#1 1491183954#2 38375823#0 38375823#1 1365389583#0 1365389583#1 1365389583#2 1461641462 723507899 1491183946#1 1491183946#2 1491183947#0 1491183947#1 138652753#0 138652753#1 723313398 1491172355 723312334#1 723312334#3 723312334#4 723312334#5 723312334#7 723312334#8 38691390#0" />
    </vehicle>
    <vehicle id="motorcycle_p0_b_18" type="motorcycle_p0_b__motorcycle" depart="100.48" departLane="best">
        <route edges="38393869#1 875027030 875027029#0 875027029#1 875027029#2 38393875#0 38393875#1 -38393870#4 38691390#0 38691390#3 -87494509#6 -87494509#5 -87494509#3 -87494509#1 -87494509#0 -1057888578 725287635#6 725287635#1 203589970#0 203589970#1 203589970#2 203589970#3 203589970#4 203589949#1 -1420160202 -108899907#2 -108899907#1" />
    </vehicle>
    <vehicle id="motorcycle_p0_b_19" type="motorcycle_p0_b__motorcycle" depart="106.06" departLane="best" departSpeed="max">
        <route edges="-1462125975 -1461641386 -38375844#3 -38375844#2 1004737861#1 38359845#0 38359845#1 38655903#0 38655903#1 38655903#2 38655903#3 -38359857#2" />
    </vehicle>
    <vehicle id="motorcycle_p0_b_20" type="motorcycle_p0_b__motorcycle" depart="111.64" departLane="best">
        <route edges="-1062204371 417235727#3 266143645#1 266143645#3 -87494509#3 1184728292 266143610#2 266143610#3 266143610#4 266143610#5 266143651#0" />
    </vehicle>
    <vehicle id="motorcycle_p0_b_21" type="motorcycle_p0_b__motorcycle" depart="117.22" departLane="best">
        <route edges="1491172365#1 1491172365#2 1491172365#3 -243006566#4 -243006566#3 115560899#0 115560899#1 -1491172357#1 -99682907#3 -1491172360#1 -38393868#2 -38393868#1 -38393868#0 -1491172361#2 38359868#1 1491183966#0 1491183966#1 410529592#1 1461641452#1 988510421 1461641451#0 1461641451#1 410529595#0 410529595#1 410552443 203589973#1 116650845#0 116650845#1" />
    </vehicle>
    <vehicle id="motorcycle_p0_b_22" type="motorcycle_p0_b__motorcycle" depart="122.81" departLane="best">
        <route edges="988510417#2 116625957#0 116625957#1 459456563 459456564#0 459456564#1 459456564#2 459456564#4 459456564#5 875149911#1 -1026606157 -103426225#6 -103426225#5" />
    </vehicle>
    <vehicle id="motorcycle_p0_b_23" type="motorcycle_p0_b__motorcycle" depart="128.39" departLane="best">
        <route edges="87494509#5 87494509#6 -38691390#4 -38691390#2 38393870#0 -38393875#3 -38393875#0 417235700" />
    </vehicle>
    <vehicle id="motorcycle_p0_b_24" type="motorcycle_p0_b__motorcycle" depart="133.97" departLane="best">
        <route edges="115560895#3 115560895#4 -38393869#0 -1125927213#2 -1125927213#1 -1125927213#0" />
    </vehicle>
    <vehicle id="motorcycle_p0_b_25" type="motorcycle_p0_b__motorcycle" depart="139.55" departLane="best">
        <route edges="1461641450#1 1461641450#2 1461641450#3 266143610#4 87494508#0 87494508#1 87494508#3 87494508#4 87494508#5 1461641449#0 1461641449#1 1462125970 1030215636 1030215635 694603075#4 694603075#5 694603075#6 694603075#7 694603075#1 694603076#0 694603076#1 1423673547#0 1423673547#1 38359865#0 266143653 824174714 -1423673546 824174716 1423662169#0 548247853#2 1461641388 249079039#0 249079039#1 -116457542#4" />
    </vehicle>
    <vehicle id="motorcycle_p0_b_26" type="motorcycle_p0_b__motorcycle" depart="145.13" departLane="best" departSpeed="max">
        <route edges="-203589956#1 203589968#1 203589968#4 203589964#0 824174716 1423662169#0 1099670074#1 1309272820 38393992#1 38393992#3 99682907#2 1491183943#1 1491183944#0 1491183944#1" />
    </vehicle>
    <vehicle id="motorcycle_p0_b_27" type="motorcycle_p0_b__motorcycle" depart="150.72" departLane="best">
        <route edges="-38393868#0 -1491172361#2 38359868#1 1491183966#0 1491183966#1 410529592#1 1461641452#1 988510421 1461641451#0 1461641451#1 410529595#0 410529595#1 725287636#0 725287636#1 725287636#2 725287635#3 164415954#0 164415954#1 164415954#2 1461641450#1 1461641450#2 1461641450#3 266143610#4 266143610#5 266143651#0 266143651#1 266143651#2 266143651#3 723313369#4 723313369#5 723313369#6 138652733 723313368 38359894 723313398 1491172355" />
    </vehicle>
    <vehicle id="motorcycle_p0_b_28" type="motorcycle_p0_b__motorcycle" depart="156.30" departLane="best">
        <route edges="-547154355#3 114615023#3 114615023#4 -1491183944#1 -1491183944#0 -1491183943#1 -99682907#3 -1461641437 -38393992#2 -1099670076#1 1099670075#0 38359851#1 1423673546 -824174714 824174715 38359865#2 1491183952 1068837568 1491183954#0 1491183954#1 1491183954#2 1461641447 1491183956 1491183957 1491183958#1 38359850#1 1491183959 38375838 38375848 417235733#0 417235733#1 101152389 1479274894 1473695733 694603074#0 1491183946#0" />
    </vehicle>
    <vehicle id="motorcycle_p0_b_29" type="motorcycle_p0_b__motorcycle" depart="161.88" departLane="best" departSpeed="max">
        <route edges="-424514808 116980609#1 116980609#2 116980609#3 38393875#0 38393875#1 -38393870#4 38691390#0 38691390#3 1028732094#0" />
    </vehicle>
    <vehicle id="motorcycle_p0_b_30" type="motorcycle_p0_b__motorcycle" depart="167.46" departLane="best" departSpeed="max">
        <route edges="-424514814#1 -424514814#0 116980609#2 116980609#3 -875027029#2 -875027029#1 -875027029#0 115560904#0 108933163 108933164 115560954 115561161#1 115561161#2 254747697#0 254747697#2 417192344#2 417192344#3 203589961 203589971#1 203589950#0" />
    </vehicle>
    <vehicle id="motorcycle_p0_b_31" type="motorcycle_p0_b__motorcycle" depart="173.04" departLane="best">
        <route edges="1461641451#1 410529595#0 410529595#1 -38393860#0 -1125937900#1 -1125937900#0 694603078#0 694603078#1 694603075#6 694603072 -1428233169 -1104045493#1 -1491172369#1 -1491172369#0 -824158743#2 1491172361#1 38393868#0 38393868#1 38393868#2 1491172360#0 99682907#2 1491172357#1 243006969#1" />
    </vehicle>
    <vehicle id="motorcycle_p0_b_32" type="motorcycle_p0_b__motorcycle" depart="178.63" departLane="best" departSpeed="max">
        <route edges="-453743055 -1062204371 417235727#3 266143645#1 266143645#3 -87494509#3 1184728292 266143610#2 266143610#3 266143610#4 87494508#0 87494508#1 87494508#3 87494508#4 87494508#5" />
    </vehicle>
    <vehicle id="motorcycle_p0_b_33" type="motorcycle_p0_b__motorcycle" depart="184.21" departLane="best">
        <route edges="-115560988#2 -115560988#1 1004744417 1004744416#0 1004737861#1 38359845#0 38359845#1 38655903#0 38655903#1 38655903#2 38655903#3 417114094#0 417114094#1 417192337#0 417192337#1 417192337#2 38691389#0 38691389#1 931378515#0 931378515#1 417235733#0 417235733#1 101152389 1479274894 1473695733 1033645489#0 1033645488 1033645485 723312334#0 723312334#1 723312334#3 723312334#4 723312334#5 723312334#7 723312334#8 38691390#0 38691390#3 1028732094#0 -417235727#3 1062204371 453743055" />
    </vehicle>
    <vehicle id="motorcycle_p0_b_34" type="motorcycle_p0_b__motorcycle" depart="189.79" departLane="best">
        <route edges="115560903#1 115560903#2 115560903#3 115560903#4 -1125927213#1 -1125927213#0 417192344#0 417192344#1 417192344#2 417192344#3 101152389 1479274894 1473695733 694603074#0 694603074#2 694603074#3 1462125970 1030215636 1030215635 694603075#4 694603075#5 694603075#6 694603075#7 694603075#1 694603076#0 694603076#1 1423673547#0 1423673547#1 38359865#0 266143653 824174714 -1423673546 824174716 1423662169#0 548247853#2 116451461#1 182017479#1 -624091858#1" />
    </vehicle>
    <vehicle id="motorcycle_p0_b_35" type="motorcycle_p0_b__motorcycle" depart="195.37" departLane="best">
        <route edges="-1491172357#1 -99682907#3 -1491172360#1 -38393868#2 -38393868#1 -38393868#0 -1491172361#2 38359868#1 1491183966#0 1491183966#1 410529592#1 1461641452#1 988510421 1461641451#0 1461641451#1 410529595#0 410529595#1 725287636#0 725287636#1 725287636#2 725287635#3 164415954#0 164415954#1 164415954#2 1461641450#1 1461641450#2 1461641450#3 266143610#4 266143610#5 266143651#0 266143651#1 266143651#2 266143651#3 723313369#4 723313369#5 723313369#6" />
    </vehicle>
    <vehicle id="motorcycle_p0_b_36" type="motorcycle_p0_b__motorcycle" depart="200.95" departLane="best">
        <route edges="723313369#2 723313369#3 723313369#4 723313369#5 723313369#6 138652733 723313368 38359894 723313398 1491183950#1 -1033645484 -1033645486#0 -38359862 694603074#0 694603074#2 694603074#3 203589954#1 203589954#2 1491183954#1 1491183954#2 1461641447 1491183956 1491183957 1491183958#1" />
    </vehicle>
    <vehicle id="motorcycle_p0_b_37" type="motorcycle_p0_b__motorcycle" depart="206.54" departLane="best">
        <route edges="-115561168#5 -115561168#4 -115561168#3 -115561168#2 -115561168#1 -1491172374 410529592#1 1461641452#1 1491172371#1 1491172368#0 1104045493#1 1428233169 694603073 694603075#1 694603076#0 694603076#1 -115561175#1 -266143623#1 1491172367#2 1491172367#3 1491172367#4 115514716#1" />
    </vehicle>
    <vehicle id="motorcycle_p0_b_38" type="motorcycle_p0_b__motorcycle" depart="212.12" departLane="best">
        <route edges="1491172367#1 1491172367#2 1491172367#3 1491172367#4 243007177#1 243007176#1 38393992#1 38393992#3 99682907#2 1491183943#1 1491183944#0 1491183944#1 1491183944#2 1491183944#3 -683745965#1 -683745965#0" />
    </vehicle>
    <vehicle id="motorcycle_p0_b_39" type="motorcycle_p0_b__motorcycle" depart="217.70" departLane="best">
        <route edges="-115561180#2 -115561180#0 -1491183944#3 -1491183944#2 -1491183944#1 -1491183944#0 -1491183943#1 -99682907#3 -1491172360#1 -38393868#2 630462798#1 630462798#2 630462798#4" />
    </vehicle>
    <vehicle id="motorcycle_p0_b_40" type="motorcycle_p0_b__motorcycle" depart="223.28" departLane="best">
        <route edges="264476089 -723312331 115560895#2 115560895#3 115560895#4 -38393869#0 -1125927213#2 -1125927213#1 -1125927213#0 -931220687#2 -931220687#1 -931220687#0 -570104370" />
    </vehicle>
    <vehicle id="motorcycle_p0_b_41" type="motorcycle_p0_b__motorcycle" depart="228.86" departLane="best">
        <route edges="-115561168#5 -115561168#4 -115561168#3 -115561168#2 -115561168#1 -1491172374 410529592#1 1461641452#1 988510421 1461641451#0 1461641451#1 410529595#0 410529595#1 410552443" />
    </vehicle>
    <vehicle id="motorcycle_p0_b_42" type="motorcycle_p0_b__motorcycle" depart="234.45" departLane="best">
        <route edges="38691386#6 115560948#0 115560948#1 38691390#3 -87494509#6 -87494509#5 -87494509#3 -87494509#1 -87494509#0 -1057888578 725287635#6 725287635#1 203589970#0 203589970#1 203589970#2 203589970#3 203589970#4 203589949#1 203589949#2 1420160203 203589969#0" />
    </vehicle>
    <vehicle id="motorcycle_p0_b_43" type="motorcycle_p0_b__motorcycle" depart="240.03" departLane="best">
        <route edges="115672673#0 115672673#1 243006968#0 243006968#1 -38393992#2 -1099670076#1 1099670075#0 38359851#1 1423673546 -824174714 824174715 38359865#2 1491183952 1068837568 1491183954#0 203589957#1 203589968#1 -115514116#2 -115514116#1 -115514116#0" />
    </vehicle>
    <vehicle id="motorcycle_p0_b_44" type="motorcycle_p0_b__motorcycle" depart="245.61" departLane="best" departSpeed="max">
        <route edges="-424514808 116980609#1 116980609#2 116980609#3 38393875#0 38393875#1 -38393870#4 -723312334#8 -723312334#7 -723312334#6 -723312334#4 -723312334#3 -723312334#1 -723312334#0 -1033645484 -1033645486#0 -38359862 694603074#0 694603074#2 694603074#3 1462125970 1030215636 1030215635 694603075#4 694603077#0 694603077#1 1125937900#0 1125937900#1" />
    </vehicle>
    <vehicle id="motorcycle_p0_b_45" type="motorcycle_p0_b__motorcycle" depart="251.19" departLane="best" departSpeed="max">
        <route edges="-677624523#1 -203589969#0 -1420160203 203589949#3 1420160204 1461641460 203589962#0 203589962#1 410529592#1 1461641452#1 988510421 1461641451#0 1461641451#1 410529595#0 410529595#1 725287636#0 108646023#0 108646023#1 108646023#3 1461641449#0 1461641449#1 203589954#1 203589954#2 1491183954#1 1491183954#2 1461641447 1491183956 1491183957 1491183958#1 38359850#1 1491183959 38375838 38375848 417235733#0 417235733#1 -417192344#3 -417192344#2 -417192344#1 -417192344#0 -931220687#2 -931220687#1" />
    </vehicle>
    <vehicle id="motorcycle_p0_b_46" type="motorcycle_p0_b__motorcycle" depart="256.77" departLane="best">
        <route edges="115560946#0 115560946#1 115560946#2 138652733 723313368 38359894 723313398 1491183950#1 -1033645484 -1033645486#0 -38359862 694603074#0 694603074#2 694603074#3 1462125970 1030215636 1030215635 694603075#4 694603077#0 694603077#1 1125937900#0 1125937900#1 38393860#0 725287636#0 203589973#1 203589973#3 203589973#4 1420160205 203589949#5 203589949#1 203589949#2 1420160203 203589969#0 677624523#1" />
    </vehicle>
    <vehicle id="motorcycle_p0_b_47" type="motorcycle_p0_b__motorcycle" depart="262.36" departLane="best">
        <route edges="-115561179#0 -115561180#0 -683745965#1 -683745965#0" />
    </vehicle>
    <vehicle id="motorcycle_p0_b_48" type="motorcycle_p0_b__motorcycle" depart="267.94" departLane="best">
        <route edges="372020013#1 372020014 723312334#4 723312334#5 723312334#7 723312334#8 38691390#0 38691390#3 -87494509#6 -87494509#5 -87494509#3 -87494509#1 -87494509#0 -1057888578 725287635#6 725287635#1 725287635#2 -725287636#2 -725287636#1 108646023#0 108646023#1 1029701448 108686053#1" />
    </vehicle>
    <vehicle id="motorcycle_p0_b_49" type="motorcycle_p0_b__motorcycle" depart="273.52" departLane="best">
        <route edges="-87494509#0 -1057888578 725287635#6 725287635#1 725287635#2 -725287636#2 -725287636#1 -725287636#0 -38393860#0 -1125937900#1 -1125937900#0 694603078#0 694603078#1 694603075#6 694603075#7 694603075#1 694603076#0 694603076#1 1423673547#0 1423673547#1 38359865#0 266143653 824174714 -1423673546 824174716 1423662169#0 548247853#2 1461641388 249079039#0 249079039#1 249079040#1" />
    </vehicle>
    <vehicle id="motorcycle_p0_b_50" type="motorcycle_p0_b__motorcycle" depart="279.10" departLane="best" departSpeed="max">
        <route edges="1491183964 -1137637521#1 115684389#2 1491183962#1 1068837569 203589972#2 38655903#0 38655903#1 38655903#2 38655903#3 417114094#0 417114094#1 38375846#0 38375846#1 38375846#2 38375846#3 931220687#0 931220687#1 931220687#2 1125927213#0 1125927213#1 1125927213#2 38393869#0 115560895#5" />
    </vehicle>
    <vehicle id="motorcycle_p0_b_51" type="motorcycle_p0_b__motorcycle" depart="284.68" departLane="best">
        <route edges="38359845#0 38359845#1 38655903#0 38655903#1 38655903#2 38655903#3 417114094#0 417114094#1 417192337#0 417192337#1 417192337#2 38691389#0 38691389#1 931378515#0 931378515#1 417235733#0 417235733#1 101152389 1479274894 1473695733 694603074#0 694603074#2 694603074#3 203589954#1 203589954#2" />
    </vehicle>
    <vehicle id="motorcycle_p0_b_52" type="motorcycle_p0_b__motorcycle" depart="290.27" departLane="best">
        <route edges="203589970#4 203589949#1 203589949#2 203589949#3 1420160204 1461641460 203589962#0 203589962#1 410529592#1 1461641452#1 988510421 1461641451#0 1461641451#1 410529595#0 410529595#1 725287636#0 108646023#0 108646023#1 108646023#3 1461641449#0 1461641449#1 203589954#1 203589954#2 1491183954#1 1491183954#2 1461641447 1491183956 1491183957 1491183958#1 38359850#1 1491183959 1491183960 1068837569 203589972#2 -38359845#1 -38359845#0 -1004737861#2 -1004744416#1 -1004744417 -38375826 -1004744419 -875071472 -1087007031 -875070295 -875070294 -1004744421" />
    </vehicle>
    <vehicle id="motorcycle_p0_b_53" type="motorcycle_p0_b__motorcycle" depart="295.85" departLane="best">
        <route edges="-630462798#4 -630462798#2 -630462798#1 38393868#2 1491172360#0 -1461641437 -38393992#2 -1099670076#1 1099670075#0 694609276 875074258 1214310714 1125937899#0 1125937899#1 1461641439 1004744421 875070294 875070295 1087007031 875071472 1004744419 38375826 115684389#1" />
    </vehicle>
    <vehicle id="motorcycle_p0_b_54" type="motorcycle_p0_b__motorcycle" depart="301.43" departLane="best">
        <route edges="266143655#2 266143655#4 266143655#5 1461641461 108899907#1 108899907#2 1420160202 203589949#2 203589949#3 1420160204 1461641460 203589962#0 203589962#1 410529592#1 1461641452#1 988510421 1461641451#0 1461641451#1 410529595#0 410529595#1 725287636#0 725287636#1 725287636#2 725287635#3 164415954#0 164415954#1 164415954#2 1461641450#1 1461641450#2 1461641450#3 266143610#4 266143610#5 266143651#0 266143651#1 266143651#2 266143651#3 723313369#4 723313369#5 723313369#6 138652733" />
    </vehicle>
    <vehicle id="motorcycle_p0_b_55" type="motorcycle_p0_b__motorcycle" depart="307.01" departLane="best">
        <route edges="-203589969#2 -203589969#1 -203589969#0 -1420160203 203589949#3 1420160204 1461641460 203589962#0 203589962#1 410529592#1 1461641452#1 988510421 1461641451#0 1461641451#1 410529595#0 410529595#1 725287636#0 725287636#1 725287636#2 725287635#3 725287635#4 725287635#5 1057888578 87494509#0 87494509#1 87494509#2 87494509#5 87494509#6 1028732094#0 -1067735751" />
    </vehicle>
    <vehicle id="motorcycle_p0_b_56" type="motorcycle_p0_b__motorcycle" depart="312.60" departLane="best" departSpeed="max">
        <route edges="-1283609633#1 -243006566#3 115560899#0 115560899#1 -1491172357#1 -99682907#3 -1491172360#1 -38393868#2 -38393868#1 -38393868#0 -1491172361#2 824158743#1 1491172369#0 1491172369#1 108040331#1 1491172370#0 -108895901#1 -108895901#0" />
    </vehicle>
    <vehicle id="motorcycle_p0_b_57" type="motorcycle_p0_b__motorcycle" depart="318.18" departLane="best">
        <route edges="115560947#2 115560945 723313369#5 723313369#6 138652733 723313368 38359894 723313398 1491183950#1 -1033645484 -1033645486#0 -38359862 694603074#0 694603074#2 694603074#3 1462125970 1030215636 1030215635 694603075#4 694603075#5 694603075#6 694603072 -1428233169 -1104045493#1 -1491172369#1 -1491172369#0 -824158743#2 38359868#1 1491183966#0 1491183966#1 410529592#1 1461641452#1 988510421 1491172372#0" />
    </vehicle>
    <vehicle id="motorcycle_p0_b_58" type="motorcycle_p0_b__motorcycle" depart="323.76" departLane="best" departSpeed="max">
        <route edges="-624091858#3 -624091858#2 -624091858#1 -624091858#0 112602521#1 1214310714 1125937899#0 1125937899#1 1461641439 1004744421 875070294 875070295 1087007031 875071472 1004744419 38375826 1004744417 1004744416#0 -545148171#1 -1004737860 -170772575 -135704149" />
    </vehicle>
    <vehicle id="motorcycle_p0_b_59" type="motorcycle_p0_b__motorcycle" depart="329.34" departLane="best">
        <route edges="694603076#0 694603076#1 -115561175#1 -266143623#1 1491172367#2 1491172367#3" />
    </vehicle>
    <vehicle id="motorcycle_p0_b_60" type="motorcycle_p0_b__motorcycle" depart="334.92" departLane="best">
        <route edges="1491183959 38375838 38375848 417235733#0 417235733#1 203589961 203589971#1 203589950#0 203589950#1" />
    </vehicle>
    <vehicle id="motorcycle_p0_b_61" type="motorcycle_p0_b__motorcycle" depart="340.51" departLane="best">
        <route edges="723312331 372020014 723312334#4 723312334#5 723312334#7 723312334#8 38691390#0 38691390#3 -87494509#6 -87494509#5 -87494509#3 -87494509#1 -87494509#0 -1057888578 725287635#6 725287635#1 725287635#2 725287635#3 164415954#0 164415954#1 164415954#2 1461641450#1" />
    </vehicle>
    <vehicle id="motorcycle_p0_b_62" type="motorcycle_p0_b__motorcycle" depart="346.09" departLane="best" departSpeed="max">
        <route edges="-677624523#1 -203589969#0 -1420160203 203589949#3 1420160204 1461641460 203589962#0 203589962#1 410529592#1 1461641452#1 1491172371#1 1491172368#0 1104045493#1 1428233169 694603073 694603075#1 694603076#0 694603076#1 1423673547#0 1423673547#1 38359865#0 38359865#1 38359865#2 1491183952 1068837568 1491183954#0" />
    </vehicle>
    <vehicle id="motorcycle_p0_b_63" type="motorcycle_p0_b__motorcycle" depart="351.67" departLane="best">
        <route edges="38359866#0 38359866#1 38359866#2 87494508#4 87494508#5 1461641449#0 1461641449#1 1462125970 1030215636 1030215635 694603075#4 694603077#0 694603077#1 1125937900#0 1125937900#1 38393860#0 725287636#0 725287636#1 725287636#2 725287635#3 725287635#4 725287635#5 1057888578 87494509#0 87494509#1 87494509#2 87494509#5 87494509#6 1028732094#0 -1067735751" />
    </vehicle>
    <vehicle id="motorcycle_p0_b_64" type="motorcycle_p0_b__motorcycle" depart="357.25" departLane="best" departSpeed="max">
        <route edges="266157747 203589978#2 203589978#3 203589978#4 203589978#6 1461641444#0 417309446#0 417309446#2 646265608 170772575 1004737860 545148171#0 -1004744416#1 -1004744417 -38375826 115674753#1" />
    </vehicle>
    <vehicle id="motorcycle_p0_b_65" type="motorcycle_p0_b__motorcycle" depart="362.83" departLane="best">
        <route edges="1067735751 266143645#1 266143645#3 87494509#5 87494509#6 -38691390#4 -38691390#2 -723312334#8 -723312334#7 723312332 -115560904#2 -115560904#1 -115560904#0" />
    </vehicle>
    <vehicle id="motorcycle_p0_b_66" type="motorcycle_p0_b__motorcycle" depart="368.42" departLane="best">
        <route edges="694609277#0 1099670074#1 1309272820 38393992#1 38393992#3 99682907#2 1491172357#1" />
    </vehicle>
    <vehicle id="motorcycle_p0_b_67" type="motorcycle_p0_b__motorcycle" depart="374.00" departLane="best">
        <route edges="108899907#1 108899907#2 1420160202 203589949#2 203589949#3 1420160204 1461641460 203589962#0 203589962#1 410529592#1 1461641452#1 988510421 1461641451#0 1461641451#1 410529595#0 410529595#1 725287636#0 725287636#1 725287636#2 725287635#3 164415954#0 164415954#1 164415954#2 1461641450#1 1461641450#2 1461641450#3 266143610#4 266143610#5 266143651#0 266143651#1 266143651#2 266143651#3 723313369#4 723313369#5" />
    </vehicle>
    <vType id="motorcycle_p1_l__motorcycle" vClass="motorcycle" />
    <vehicle id="motorcycle_p1_l_0" type="motorcycle_p1_l__motorcycle" depart="379.00" departLane="best" departSpeed="max">
        <route edges="108045029#0 108045029#1 725287635#1 725287635#2 725287635#3 725287635#4 725287635#5 1057888578 87494509#0 87494509#1 87494509#2 87494509#5 87494509#6 1028732094#0 -417235727#3 -417235727#2 -417235727#1 1125927214#2 1125927214#3 116625957#0 116625957#1" />
    </vehicle>
    <vehicle id="motorcycle_p1_l_1" type="motorcycle_p1_l__motorcycle" depart="396.86" departLane="best">
        <route edges="-1461641452#0 -203589962#1" />
    </vehicle>
    <vehicle id="motorcycle_p1_l_2" type="motorcycle_p1_l__motorcycle" depart="414.73" departLane="best">
        <route edges="38359868#1 1491183966#0 1491183966#1 410529592#1 1461641452#1 988510421 1461641451#0 1461641451#1 410529595#0 410529595#1 725287636#0 725287636#1 725287636#2 725287635#3 725287635#4 725287635#5 725287635#6 -108045029#1 -108045029#0" />
    </vehicle>
    <vehicle id="motorcycle_p1_l_3" type="motorcycle_p1_l__motorcycle" depart="432.59" departLane="best">