<?xml version='1.0' encoding='UTF-8'?>
<routes>
    <vType id="bus_p0_b__bus" vClass="bus" />
    <vehicle id="bus_p0_b_0" type="bus_p0_b__bus" depart="0.00" departLane="best">
        <route edges="1461641436 -38393993#0 203589976#0 203589976#1 203589976#3 203589976#4 203589976#6 38359868#1 1491183966#0 1491183966#1 410529592#1 1461641452#1 988510421 1461641451#0 1461641451#1 410529595#0 410529595#1 725287636#0 725287636#1 725287636#2 725287635#3 725287635#4 725287635#5 1057888578 87494509#0 87494509#1 87494509#2 87494509#5 87494509#6 115561170#0 115561170#1 115561170#2 -38691386#5" />
    </vehicle>
    <vehicle id="bus_p0_b_1" type="bus_p0_b__bus" depart="7.50" departLane="best" departSpeed="max">
        <route edges="108045029#0 108045029#1 725287635#1 203589970#0 203589970#1 203589970#2 203589970#3 203589970#4 203589949#1 203589949#2 203589949#3 1420160204 1461641460 203589962#0 203589962#1 1461641459#1 115561168#1 115561168#2 115561168#3 115561168#4 115561168#5 115561168#6 115561168#7 184745185#3 184745185#5 115561178#1" />
    </vehicle>
    <vehicle id="bus_p0_b_2" type="bus_p0_b__bus" depart="15.00" departLane="best">
        <route edges="108686154#1 87494509#1 87494509#2 723313369#1 723313369#2 723313369#3 723313369#4 723313369#5 723313369#6 138652733 723313368 38359894 723313398 1491183950#1 -1033645484 -1033645486#0 -38359862 -1473695733 38393862 203589971#1 203589971#2 931405746 931388877 203589972#0 203589972#1 203589972#2 -38359845#1 -38359845#0 -1004737861#2 -545148171#1 -1004737860 -170772575 -135704149 114150961#1 114150961#2 1461641446#1 114533140#1" />
    </vehicle>
    <vehicle id="bus_p0_b_3" type="bus_p0_b__bus" depart="22.50" departLane="best">
        <route edges="203589978#6 1461641444#0 417309446#0 417309446#2 646265608 170772575 1004737860 545148171#0 1004737861#1 38359845#0 38359845#1 38655903#0 38655903#1 38655903#2 38655903#3 417114094#0 417114094#1 417192337#0 417192337#1 417192337#2 38691389#0 38691389#1 931378515#0 931378515#1 417235733#0 417235733#1 101152389 1479274894 1473695733 694603074#0 694603074#2 694603074#3 1462125970 1030215636 1030215635 694603075#4 694603077#0 694603077#1 1125937900#0 1125937900#1 38393860#0 725287636#0 725287636#1 725287636#2 725287635#3 164415954#0 164415954#1 164415954#2 1461641450#1 1461641450#2 1461641450#3 266143610#4 266143610#5 266143651#0 266143651#1" />
    </vehicle>
    <vehicle id="bus_p0_b_4" type="bus_p0_b__bus" depart="30.00" departLane="best">
        <route edges="-103426225#6 -103426225#5 -103426225#2 -103426225#1 -103426225#0 -1461641433#3 -1461641433#2 -1461641433#1 -1461641433#0 -1461641457#1 -1461641457#0 -1461641458#3 -1461641458#2 -1461641458#1 417228502#1 417228502#2 1491172359#0 -1491172360#1 -38393868#2 -38393868#1 -38393868#0 -1491172361#2 824158743#1 1491172369#0" />
    </vehicle>
    <vehicle id="bus_p0_b_5" type="bus_p0_b__bus" depart="37.51" departLane="best" departSpeed="max">
        <route edges="38359857#0 38359857#1 38359857#2 417114094#0 417114094#1 417192337#0 417192337#1 417192337#2 38691389#0 38691389#1 931378515#0 931378515#1 417235733#0 417235733#1 101152389 1479274894 1473695733 1033645489#0 1033645488 1033645485 723312334#0 723312334#1 723312334#3 723312334#4 723312334#5 723312334#7 723312334#8 38691390#0 38691390#3 1028732094#0 -417235727#3 -417235727#2 -417235727#1" />
    </vehicle>
    <vehicle id="bus_p0_b_6" type="bus_p0_b__bus" depart="45.01" departLane="best" departSpeed="max">
        <route edges="-723387976#1 -624091858#2 -624091858#1 -624091858#0 112602521#1 1214310714 1125937899#0 1125937899#1 1461641439 1004744421 875070294 875070295 1087007031 875071472 1004744419 38375826 1004744417 1004744416#0 -545148171#1 -1004737860 115561673#1 115561673#2 -115560987" />
    </vehicle>
    <vehicle id="bus_p0_b_7" type="bus_p0_b__bus" depart="52.51" departLane="best" departSpeed="max">
        <route edges="114532723#0 114532723#1 203589978#0 203589978#1 203589978#2 203589978#3 203589978#4 203589978#6 1461641444#0 417309446#0 417309446#2 646265608 170772575 1004737860 545148171#0 1004737861#1 38359845#0 38359845#1 38655903#0 38655903#1 38655903#2 38655903#3 417114094#0 417114094#1 417192337#0 417192337#1 417192337#2 38691389#0 38691389#1 931378515#0 931378515#1 417235733#0 417235733#1 101152389 1479274894 1473695733 1033645489#0 1033645488 1033645485 723312334#0 723312334#1 723312334#3 723312334#4 723312334#5 723312334#7 723312334#8 38691390#0 38691390#3 115561170#0" />
    </vehicle>
    <vehicle id="bus_p0_b_8" type="bus_p0_b__bus" depart="60.01" departLane="best">
        <route edges="114150961#4 1409708183 203589978#0 203589978#1 203589978#2 203589978#3 203589978#4 203589978#6 1461641444#0 417309446#0 417309446#2 646265608 170772575 1004737860 545148171#0 -1004744416#1 -1004744417 -38375826 -1004744419 -875071472 -1087007031 -875070295 -875070294 -1004744421 -38393865 -1125937899#1 -1125937899#0 -1214310714 -875074258 694609277#0 548247853#2 1461641388 249079039#0 249079039#1 243006565#1 243006567#0 243006567#1 243006566#0 243006566#1 243006566#3 1283609633#1" />
    </vehicle>
    <vehicle id="bus_p0_b_9" type="bus_p0_b__bus" depart="67.51" departLane="best" departSpeed="max">
        <route edges="-723387976#1 -624091858#2 -624091858#1 -624091858#0 112602521#1 1214310714 1125937899#0 1125937899#1 1461641439 1004744421 875070294 875070295 1087007031 875071472 1004744419 38375826 1004744417 1004744416#0 1004737861#1 38359845#0 38359845#1 38655903#0 38655903#1 38655903#2 38655903#3 417114094#0 417114094#1 38375846#0 38375846#1 38375846#2 38375846#3 -108934130" />
    </vehicle>
    <vehicle id="bus_p0_b_10" type="bus_p0_b__bus" depart="75.01" departLane="best">
        <route edges="372020013#1 372020014 -723312334#3 -723312334#1 -723312334#0 -1033645484 -1033645486#0 -38359862 694603074#0 694603074#2 694603074#3 1462125970 1030215636 1030215635 694603075#4 694603075#5 694603075#6 694603075#7 694603075#1 694603076#0 694603076#1 1423673547#0 1423673547#1 38359865#0 266143653 824174714 -1423673546 824174716 1423662169#0 548247853#2 116451461#1 182017479#1 624091858#2" />
    </vehicle>
    <vehicle id="bus_p0_b_11" type="bus_p0_b__bus" depart="82.51" departLane="best">
        <route edges="410529595#1 725287636#0 108646023#0 108646023#1 108646023#3 1461641449#0 1461641449#1 203589954#1 203589954#2 1491183954#1 1491183954#2 1461641447 1491183956 1491183957 1491183958#1 38359850#1 1491183959 1491183960 1068837569 203589972#2 -38359845#1 -38359845#0 -1004737861#2 -545148171#1 -1004737860 115561673#1 115561673#2 115561673#3 115561673#4" />
    </vehicle>
    <vehicle id="bus_p0_b_12" type="bus_p0_b__bus" depart="90.01" departLane="best" departSpeed="max">
        <route edges="115673962#0 115673962#1 646265607#0 646265608 170772575 1004737860 545148171#0 1004737861#1 38359845#0 38359845#1 38655903#0 38655903#1 38655903#2 38655903#3 417114094#0 417114094#1 38375846#0 38375846#1 38375846#2 38375846#3 931220687#0 931220687#1 931220687#2 1125927213#0 1125927213#1 1125927213#2 38393869#0 38393869#1 875027030 875027029#0 875027029#1 875027029#2 38393875#0 38393875#1" />
    </vehicle>
    <vehicle id="bus_p0_b_13" type="bus_p0_b__bus" depart="97.52" departLane="best">
        <route edges="-459456564#0 -459456563 -116625957#1 -116625957#0 -1125927214#3 -1125927214#2 417235727#0 417235727#2 417235727#3 266143645#1 266143645#3 -87494509#3 -87494509#1 -87494509#0 -1057888578 725287635#6 725287635#1 725287635#2 -725287636#2 -725287636#1 -725287636#0 -38393860#0 -1125937900#1 -1125937900#0 694603078#0 694603078#1 694603075#6 694603075#7 694603075#1 694603076#0 694603076#1 1423673547#0 1423673547#1 38359865#0 266143653 824174714 -1423673546 824174716 1423662169#0 548247853#2 116451461#1 182017479#1 -624091858#1 -624091858#0 -911225805#1" />
    </vehicle>
    <vehicle id="bus_p0_b_14" type="bus_p0_b__bus" depart="105.02" departLane="best">
        <route edges="115514716#3 1428233169 694603073 694603075#1 694603075#2 694603075#3 694603075#4 694603077#0 694603077#1 1125937900#0 1125937900#1 38393860#0 725287636#0 725287636#1 725287636#2 725287635#3 725287635#4 725287635#5 1057888578 87494509#0 87494509#1 87494509#2 87494509#5 87494509#6 1028732094#0 -417235727#3 -417235727#2 -417235727#1 1125927214#2 185546464#0 185546464#1" />
    </vehicle>
    <vehicle id="bus_p0_b_15" type="bus_p0_b__bus" depart="112.52" departLane="best">
        <route edges="-1491172369#1 -1491172369#0 -824158743#2 -203589976#7 -203589976#4 -203589976#3 -203589976#1 -203589976#0 38393993#0 1461641435 184745185#0 184745185#1 184745185#2 184745185#3 184745185#5 1461641458#1 1461641458#2 1461641458#3 1461641457#0 1461641457#1 1461641433#0 1461641433#1 1461641433#2" />
    </vehicle>
    <vehicle id="bus_p0_b_16" type="bus_p0_b__bus" depart="120.02" departLane="best" departSpeed="max">
        <route edges="875021163 108934130 931220687#0 931220687#1 931220687#2 38691414#1 885699408 1100674755 203589972#0 203589972#1 203589972#2 -38359845#1 -38359845#0 -1004737861#2 -1004744416#1 -1004744417 115684389#1 1137637521#1 115684382" />
    </vehicle>
    <vehicle id="bus_p0_b_17" type="bus_p0_b__bus" depart="127.52" departLane="best">
        <route edges="203589970#0 203589970#1 203589970#2 203589970#3 203589970#4 203589949#1 203589949#2 203589949#3 1420160204 1461641460 203589962#0 203589962#1 410529592#1 1461641452#1 1491172371#1 1491172368#0 108040331#1 1491172370#0 243007176#1 -1099670076#1 1099670075#0 548247853#2 116451461#1 182017479#1 624091858#2 723387976#1" />
    </vehicle>
    <vehicle id="bus_p0_b_18" type="bus_p0_b__bus" depart="135.02" departLane="best">
        <route edges="-87494509#3 -87494509#1 -87494509#0 -1057888578 725287635#6 725287635#1 725287635#2 -725287636#2 -725287636#1 -725287636#0 -38393860#0 -1125937900#1 -1125937900#0 694603078#0 694603078#1 694603075#6 694603075#7 694603075#1 694603076#0 694603076#1 1423673547#0 1423673547#1 38359865#0 266143653 824174714 -1423673546 824174716 1423662169#0 548247853#2 116451461#1 1461641387" />
    </vehicle>
    <vehicle id="bus_p0_b_19" type="bus_p0_b__bus" depart="142.52" departLane="best">
        <route edges="-115561673#2 -115561673#1 1004737860 545148171#0 1004737861#1 38359845#0 38359845#1 38655903#0 38655903#1 38655903#2 38655903#3 417114094#0 417114094#1 417192337#0 417192337#1 417192337#2 38691389#0 38691389#1 931378515#0 931378515#1 417235733#0 417235733#1 101152389 1479274894 1473695733 694603074#0 1491183946#0 1491183946#1 1491183946#2 1491183947#0" />
    </vehicle>
    <vehicle id="bus_p0_b_20" type="bus_p0_b__bus" depart="150.02" departLane="best" departSpeed="max">
        <route edges="-1461641387 -116451461#1 824174717#1 1099670074#1 1309272820 38393992#1 38393992#3 1461641434#1 1461641436 1461641435 184745185#0 184745185#1 184745185#2 184745185#3 184745185#5 1461641458#1 1461641458#2 1461641458#3 1461641457#0 1461641457#1 1461641433#0 1461641433#1 1461641433#2 1461641433#3 103426225#0 103426225#1 103426225#2 103426225#4 103426225#6 1026606158 417228579#1" />
    </vehicle>
    <vehicle id="bus_p0_b_21" type="bus_p0_b__bus" depart="157.53" departLane="best" departSpeed="max">
        <route edges="1491183964 -1137637521#1 115684389#2 1491183962#1 1068837569 203589972#2 38655903#0 38655903#1 38655903#2 38655903#3 417114094#0 417114094#1 417192337#0 417192337#1 417192337#2 38691389#0 38691389#1 931378515#0 931378515#1 417235733#0 417235733#1 101152389 1479274894 1473695733 1033645489#0 1033645488 1033645485 723312334#0 723312334#1 723312334#3 723312334#4 723312334#5 723312334#7 723312334#8 38691390#0 38691390#3 1028732094#0 -417235727#3 949547103#0 949547103#1" />
    </vehicle>
    <vehicle id="bus_p0_b_22" type="bus_p0_b__bus" depart="165.03" departLane="best" departSpeed="max">
        <route edges="-571179089#1 571179091 116980609#3 38393875#0 38393875#1 -38393870#4 38691390#0 38691390#3 -87494509#6 -87494509#5 -87494509#3 -87494509#1 -87494509#0 -1057888578 725287635#6 725287635#1 203589970#0 203589970#1 203589970#2 203589970#3 203589970#4 203589949#1 203589949#2 1420160203 203589969#0 203589969#1" />
    </vehicle>
    <vehicle id="bus_p0_b_23" type="bus_p0_b__bus" depart="172.53" departLane="best" departSpeed="max">
        <route edges="113595957#0 624091858#3 107202366#0 1461641463 824174717#1 38359851#1 1423673546 -824174714 824174715 38359865#2 1491183952 1068837568 1491183954#0 1491183954#1 1491183954#2 38375823#0 38375823#1 1365389583#0 1365389583#1 1365389583#2 1461641462 723507899 1491183946#1 1491183946#2 1491183947#0 1491183947#1 138652753#0 138652753#1 723313398 1491172355 723312334#1" />
    </vehicle>
    <vehicle id="bus_p0_b_24" type="bus_p0_b__bus" depart="180.03" departLane="best">
        <route edges="1491183950#1 -1033645484 -1033645486#0 -38359862 -1473695733 38393862 203589971#1 203589971#2 931405746 931388877 203589972#0 203589972#1 203589972#2 -38359845#1 -38359845#0 -1004737861#2 -545148171#1 -1004737860 115561673#1 115561673#2 -115560987" />
    </vehicle>
    <vehicle id="bus_p0_b_25" type="bus_p0_b__bus" depart="187.53" departLane="best" departSpeed="max">
        <route edges="-203589956#1 38359849#1 38359864#1 1491183957 1491183958#1 38359850#1 1491183959 38375838 38375848 417235733#0 417235733#1 101152389 1479274894 1473695733 1033645489#0 1033645488 1033645485 723312334#0 723312334#1 723312334#3 723312334#4 723312334#5 723312332" />
    </vehicle>
    <vehicle id="bus_p0_b_26" type="bus_p0_b__bus" depart="195.03" departLane="best" departSpeed="max">
        <route edges="-949547103#1 -949547103#0 417235727#3 266143645#1 266143645#3 -87494509#3 -87494509#1 -87494509#0 -1057888578 725287635#6 725287635#1 725287635#2 -725287636#2 -725287636#1 -725287636#0 -38393860#0 -1125937900#1 -1125937900#0 694603078#0 694603078#1 694603075#6 694603075#7 694603075#1 694603076#0 694603076#1 1423673547#0 1423673547#1 38359865#0 266143653 824174714 -1423673546 824174716 1423662169#0 548247853#2 -547266341 -1461641464 154717203#0" />
    </vehicle>
    <vehicle id="bus_p0_b_27" type="bus_p0_b__bus" depart="202.53" departLane="best" departSpeed="max">
        <route edges="115561082#0 -1461641433#3 -1461641433#2 -1461641433#1 -1461641433#0 -1461641457#1 -1461641457#0 -1461641458#3 -1461641458#2 -1461641458#1 417228502#1 417228502#2 1491172359#0 -1461641437 -38393992#2 -1099670076#1 1099670075#0 38359851#1 1423673546 -824174714 824174715 38359865#2 1491183952 1068837568 1491183954#0 1491183954#1 1491183954#2 38375823#0 38375823#1 1365389583#0 1365389583#1 1365389583#2 1461641462 -38691413" />
    </vehicle>
    <vehicle id="bus_p0_b_28" type="bus_p0_b__bus" depart="210.03" departLane="best">
        <route edges="-547154355#1 -115561180#2 -115561180#0 -1491183944#3 -1491183944#2 -1491183944#1 -1491183944#0 -1491183943#1 -99682907#3 -1491172360#1 -38393868#2 -38393868#1 -38393868#0 -1491172361#2 38359868#1 1491183966#0 1491183966#1 410529592#1 1461641452#1 988510421" />
    </vehicle>
    <vehicle id="bus_p0_b_29" type="bus_p0_b__bus" depart="217.53" departLane="best">
        <route edges="266143655#6 266143655#7 266143655#8 266143655#9 266143655#10 -203589969#3 -203589969#2 -203589969#1 -203589969#0 -1420160203 203589949#3 1420160204 1461641460 203589962#0 203589962#1 410529592#1 1461641452#1 988510421 1461641451#0 1461641451#1 410529595#0 410529595#1 725287636#0 108646023#0 108646023#1 108646023#3 1461641449#0 1461641449#1 203589954#1 203589954#2 203589957#1 203589956#1" />
    </vehicle>
    <vehicle id="bus_p0_b_30" type="bus_p0_b__bus" depart="225.04" departLane="best">
        <route edges="-1491183943#1 -99682907#3 -1491172360#1 -38393868#2 -38393868#1 -38393868#0 -1491172361#2 38359868#1 1491183966#0 1491183966#1 -203589962#1 -203589962#0 -1461641460 -1420160204 203589949#4 203589949#5 203589949#1 -1420160202 -108899907#2 -108899907#1 -1461641461 -266143655#5 -266143655#4 -266143655#2 -266143655#1 -266143655#0" />
    </vehicle>
    <vehicle id="bus_p0_b_31" type="bus_p0_b__bus" depart="232.54" departLane="best">
        <route edges="-824174714 824174715 38359865#2 1423673548#0 38359852#0 38359852#1 38359852#2 694603075#3 694603075#4 694603077#0 694603077#1 1125937900#0 1125937900#1 38393860#0 725287636#0 725287636#1 725287636#2 725287635#3 725287635#4 725287635#5 1057888578 87494509#0 87494509#1 87494509#2 87494509#5 87494509#6 1028732094#0 -417235727#3 949547103#0 949547103#1" />
    </vehicle>
    <vehicle id="bus_p0_b_32" type="bus_p0_b__bus" depart="240.04" departLane="best" departSpeed="max">
        <route edges="-249079040#2 243006565#1 115672673#0 115672673#1 243006968#0 243006968#1 38393992#3 -1491172360#1 -38393868#2 -38393868#1 -38393868#0 -1491172361#2 824158743#1 1491172369#0 1491172369#1 108040331#1 115560919#1 115560919#2 115514716#2 115514716#3" />
    </vehicle>
    <vehicle id="bus_p0_b_33" type="bus_p0_b__bus" depart="247.54" departLane="best">
        <route edges="115560948#1 -38691390#2 -723312334#8 -723312334#7 -723312334#6 -723312334#4 -723312334#3 -723312334#1 -723312334#0 -1033645484 -1033645486#0 -38359862 -1473695733 38393862 203589971#1 203589971#2 931405746 931388877 203589972#0 203589972#1 203589972#2 -38359845#1 -38359845#0 -1004737861#2 -545148171#1 -1004737860 -170772575 -135704149 -417309446#2 -417309446#1 203589977#1 1461641442#1" />
    </vehicle>
    <vehicle id="bus_p0_b_34" type="bus_p0_b__bus" depart="255.04" departLane="best" departSpeed="max">
        <route edges="114532723#0 114532723#1 203589978#0 203589978#1 203589978#2 203589978#3 203589978#4 203589978#6 1461641444#0 417309446#0 417309446#2 646265608 170772575 1004737860 545148171#0 -1004744416#1 -1004744417 -38375826 -1004744419 -875071472 -1087007031 -875070295 -875070294 -1004744421 -38393865 -1125937899#1 -1125937899#0 -1214310714 -875074258 694609277#0 1099670074#1 1309272820 38393992#1 38393992#3 -1491172360#1 -38393868#2 630462798#1 630462798#2 630462798#4 630462798#5" />
    </vehicle>
    <vehicle id="bus_p0_b_35" type="bus_p0_b__bus" depart="262.54" departLane="best">
        <route edges="-1461641386 -38375844#3 -38375844#2 -1004744416#1 -1004744417 -38375826 -1004744419 -875071472 -1087007031 -875070295 -875070294 -1004744421 -38393865 112603198#1 911225805#1 624091858#0 624091858#1 624091858#2 723387976#1" />
    </vehicle>
    <vehicle id="bus_p0_b_36" type="bus_p0_b__bus" depart="270.04" departLane="best" departSpeed="max">
        <route edges="115561082#0 103426225#0 103426225#1 103426225#2 103426225#4 103426225#6 1026606158 -875149911#2 -875149911#0 -459456564#4 -459456564#2 -459456564#1 -459456564#0 -459456563 -116625957#1 -116625957#0 -1125927214#3 -1125927214#2 417235727#0 417235727#2 417235727#3 266143645#1 266143645#3 723313369#1 723313369#2 723313369#3 723313369#4 723313369#5 723313369#6 138652733 723313368 38359894 723313398 1491183950#1 -1033645484 -1033645486#0 -38359862 -1473695733 38393862 203589971#1 203589971#2 38375848 417235733#0 417235733#1 -417192344#3 -417192344#2" />
    </vehicle>
    <vehicle id="bus_p0_b_37" type="bus_p0_b__bus" depart="277.54" departLane="best" departSpeed="max">
        <route edges="-1283609633#1 -243006566#3 -243006566#1 -243006566#0 -243006967#1 -243006967#0 243006968#0 243006968#1 -38393992#2 -1099670076#1 1099670075#0 38359851#1 1423673546 -824174714 824174715 38359865#2 1491183952 1068837568 1491183954#0 1491183954#1 1491183954#2 1461641447 1491183956 1491183957 1491183958#1 38359850#1 1491183959 38375838 38375848 417235733#0 417235733#1 -417192344#3 -417192344#2 -417192344#1 -417192344#0 1125927213#0 115561161#0 115561161#1 372020013#0" />
    </vehicle>
    <vehicle id="bus_p0_b_38" type="bus_p0_b__bus" depart="285.05" departLane="best" departSpeed="max">
        <route edges="-1461641387 -116451461#1 824174717#1 1099670074#1 1309272820 38393992#1 38393992#3 1461641434#1 1461641436 1461641435 184745185#0 184745185#1 184745185#2 184745185#3 184745185#5 1461641458#1 1461641458#2 1461641458#3 1461641457#0 1461641457#1 1461641433#0 1461641433#1 1461641433#2 1461641433#3 103426225#0" />
    </vehicle>
    <vehicle id="bus_p0_b_39" type="bus_p0_b__bus" depart="292.55" departLane="best">
        <route edges="-38393992#2 -1099670076#1 1099670075#0 38359851#1 1423673546 -824174714 824174715 38359865#2 1491183952 1068837568 1491183954#0 1491183954#1 1491183954#2 1461641447 1491183956 1491183957 1491183958#1 38359850#1 1491183959 38375838 38375848 417235733#0 417235733#1 -417192344#3 -417192344#2 -417192344#1 -417192344#0 -115561670#1 -115561670#0" />
    </vehicle>
    <vehicle id="bus_p0_b_40" type="bus_p0_b__bus" depart="300.05" departLane="best" departSpeed="max">
        <route edges="1013138963#0 116457542#2 348587225#1 115560899#0 115560899#1 -1491172357#1 -99682907#3 -1491172360#1 -38393868#2 -38393868#1 -38393868#0 -1491172361#2 38359868#1 1491183966#0 1491183966#1 410529592#1 1461641452#1 988510421 1461641451#0 1461641451#1 410529595#0 410529595#1 725287636#0 725287636#1 725287636#2 725287635#3 164415954#0 164415954#1 164415954#2 1461641450#1 1461641450#2 1461641450#3 266143610#4 266143610#5 266143651#0 266143651#1 266143651#2 266143651#3 723313369#4 723313369#5 723313369#6 -115560946#2 -115560946#1 -115560946#0 115560947#1 115560947#2 -1068024437#1 -1068024437#0" />
    </vehicle>
    <vehicle id="bus_p0_b_41" type="bus_p0_b__bus" depart="307.55" departLane="best" departSpeed="max">
        <route edges="-417228579#2 -875149911#2 -875149911#0 -459456564#4 -459456564#2 -459456564#1 -459456564#0 -459456563 -116625957#1 -116625957#0 -1125927214#3 -1125927214#2 417235727#0 417235727#2 417235727#3 266143645#1 266143645#3 723313369#1 723313369#2 723313369#3 723313369#4 723313369#5 723313369#6 138652733 723313368 38359894 723313398 1491183950#1 -1033645484 -1033645486#0 -38359862 -1473695733 38393862 203589971#1 203589971#2 931405746 931388877 203589972#0 203589972#1 203589972#2 -38359845#1 -38359845#0 -1004737861#2 -545148171#1 -1004737860 -170772575 -135704149 -646265607#0 -115673962#1 -115673962#0" />
    </vehicle>
    <vehicle id="bus_p0_b_42" type="bus_p0_b__bus" depart="315.05" departLane="best" departSpeed="max">
        <route edges="115561082#0 103426225#0 103426225#1 103426225#2 103426225#4 103426225#6 1026606158 -875149911#2 -875149911#0 -459456564#4 -459456564#2 -459456564#1 -459456564#0 -459456563 -116625957#1 -116625957#0 -1125927214#3 -1125927214#2 38691386#1 38691386#3 163099350#0" />
    </vehicle>
    <vehicle id="bus_p0_b_43" type="bus_p0_b__bus" depart="322.55" departLane="best" departSpeed="max">
        <route edges="-203589956#1 203589968#1 203589968#4 203589964#0 1423673546 -824174714 824174715 38359865#2 1423673548#0 38359852#0 38359852#1 38359852#2 694603075#3 694603075#4 694603077#0 694603077#1 1125937900#0 1125937900#1 38393860#0 725287636#0 725287636#1 725287636#2 725287635#3 725287635#4 725287635#5 1057888578 87494509#0 87494509#1 87494509#2 87494509#5 87494509#6 115561170#0 115561170#1 108885733#0 -108882988" />
    </vehicle>
    <vehicle id="bus_p0_b_44" type="bus_p0_b__bus" depart="330.05" departLane="best" departSpeed="max">
        <route edges="-417235700 38393875#0 38393875#1 -38393870#4 -723312334#8 -723312334#7 -723312334#6 -723312334#4 -723312334#3 -723312334#1 -723312334#0 -1033645484 -1033645486#0 -38359862 694603074#0 694603074#2 694603074#3 1462125970 1030215636 1030215635 694603075#4 694603075#5 694603075#6 694603072 -1428233169 -1104045493#1 -1491172369#1 -1491172369#0 -824158743#2 -203589976#7 -203589976#4 -203589976#3 -203589976#1 -203589976#0 38393993#0 1461641435 184745185#0 184745185#1 184745185#2 184745185#3" />
    </vehicle>
    <vehicle id="bus_p0_b_45" type="bus_p0_b__bus" depart="337.55" departLane="best" departSpeed="max">
        <route edges="-422195693#1 -459456564#0 -459456563 -116625957#1 -116625957#0 -1125927214#3 -1125927214#2 417235727#0 417235727#2 417235727#3 266143645#1 266143645#3 723313369#1 723313369#2 723313369#3 723313369#4 723313369#5 723313369#6 138652733 723313368 38359894 723313398 1491172355" />
    </vehicle>
    <vehicle id="bus_p0_b_46" type="bus_p0_b__bus" depart="345.06" departLane="best" departSpeed="max">
        <route edges="-115561179#1 -115561179#0 -115561180#0 -1491183944#3 -1491183944#2 -1491183944#1 -1491183944#0 -1491183943#1 -99682907#3 -1491172360#1 -38393868#2 -38393868#1 -38393868#0 -1491172361#2 38359868#1 1491183966#0 1491183966#1 410529592#1 1461641452#1 988510421 1461641451#0 1461641451#1 410529595#0 410529595#1 725287636#0 108646023#0 108646023#1 108646023#3 1461641449#0 1461641449#1 203589954#1" />
    </vehicle>
    <vehicle id="bus_p0_b_47" type="bus_p0_b__bus" depart="352.56" departLane="best">
        <route edges="547154355#2 547154355#3 -1491172358 -243006970#1 -1491172357#1 -99682907#3 -1491172360#1 -38393868#2 -38393868#1 -38393868#0 -1491172361#2 38359868#1 1491183966#0 1491183966#1 410529592#1 1461641452#1 988510421 1491172372#0 1491172372#1 264484544#0" />
    </vehicle>
    <vehicle id="bus_p0_b_48" type="bus_p0_b__bus" depart="360.06" departLane="best" departSpeed="max">
        <route edges="115561669#0 38375846#3 931220687#0 931220687#1 931220687#2 417192344#0 417192344#1 417192344#2 417192344#3 101152389 1479274894 1473695733 694603074#0 694603074#2 694603074#3 1462125970 1030215636 1030215635 694603075#4 694603077#0 694603077#1 1125937900#0 1125937900#1 38393860#0 725287636#0 203589973#1 203589973#3 203589973#4" />
    </vehicle>
    <vehicle id="bus_p0_b_49" type="bus_p0_b__bus" depart="367.56" departLane="best" departSpeed="max">
        <route edges="115561669#0 38375846#3 931220687#0 931220687#1 931220687#2 417192344#0 417192344#1 417192344#2 417192344#3 101152389 1479274894 1473695733 694603074#0 694603074#2 694603074#3 1462125970 1030215636 1030215635 694603075#4 694603077#0 694603077#1 1125937900#0 1125937900#1 38393860#0 725287636#0 725287636#1 725287636#2 725287635#3 725287635#4 725287635#5 725287635#6 -108045029#1 -108045029#0" />
    </vehicle>
    <vehicle id="bus_p0_b_50" type="bus_p0_b__bus" depart="375.06" departLane="best">
        <route edges="417235727#3 266143645#1 266143645#3 723313369#1 723313369#2 723313369#3 723313369#4 723313369#5 723313369#6 138652733 723313368 38359894 723313398 1491183950#1 -1033645484 -1033645486#0 -38359862 -1473695733 38393862 203589971#1 203589971#2 931405746 931388877 203589972#0 203589972#1 203589972#2 38655903#0 38655903#1 38655903#2 38655903#3 -38359857#2 -38359857#1 -38359857#0" />
    </vehicle>
    <vType id="bus_p1_l__bus" vClass="bus" />
    <vehicle id="bus_p1_l_0" type="bus_p1_l__bus" depart="379.00" departLane="best">
        <route edges="1461641436 -38393993#0 203589976#0 203589976#1 203589976#3 203589976#4 203589976#6 38359868#1 1491183966#0 1491183966#1 410529592#1 1461641452#1 988510421 1461641451#0 1461641451#1 410529595#0 410529595#1 725287636#0 725287636#1 725287636#2 725287635#3 725287635#4 725287635#5 1057888578 87494509#0 87494509#1 87494509#2 87494509#5 87494509#6 115561170#0 115561170#1 115561170#2 -38691386#5" />
    </vehicle>
    <vehicle id="bus_p1_l_1" type="bus_p1_l__bus" depart="401.50" departLane="best" departSpeed="max">
        <route edges="108045029#0 108045029#1 725287635#1 203589970#0 203589970#1 203589970#2 203589970#3 203589970#4 203589949#1 203589949#2 203589949#3 1420160204 1461641460 203589962#0 203589962#1 1461641459#1 115561168#1 115561168#2 115561168#3 115561168#4 115561168#5 115561168#6 115561168#7 184745185#3 184745185#5 115561178#1" />
    </vehicle>
    <vehicle id="bus_p1_l_2" type="bus_p1_l__bus" depart="424.01" departLane="best">
        <route edges="108686154#1 87494509#1 87494509#2 723313369#1 723313369#2 723313369#3 723313369#4 723313369#5 723313369#6 138652733 723313368 38359894 723313398 1491183950#1 -1033645484 -1033645486#0 -38359862 -1473695733 38393862 203589971#1 203589971#2 931405746 931388877 203589972#0 203589972#1 203589972#2 -38359845#1 -38359845#0 -1004737861#2 -545148171#1 -1004737860 -170772575 -135704149 114150961#1 114150961#2 1461641446#1 114533140#1" />
    </vehicle>
    <vehicle id="bus_p1_l_3" type="bus_p1_l__bus" depart="446.51" departLane="best">
        <route edges="203589978#6 1461641444#0 417309446#0 417309446#2 646265608 170772575 1004737860 545148171#0 1004737861#1 38359845#0 38359845#1 38655903#0 38655903#1 38655903#2 38655903#3 417114094#0 417114094#1 417192337#0 417192337#1 417192337#2 38691389#0 38691389#1 931378515#0 931378515#1 417235733#0 417235733#1 101152389 1479274894 1473695733 694603074#0 694603074#2 694603074#3 1462125970 1030215636 1030215635 694603075#4 694603077#0 694603077#1 1125937900#0 1125937900#1 38393860#0 725287636#0 725287636#1 725287636#2 725287635#3 164415954#0 164415954#1 164415954#2 1461641450#1 1461641450#2 1461641450#3 266143610#4 266143610#5 266143651#0 266143651#1" />
    </vehicle>
    <vehicle id="bus_p1_l_4" type="bus_p1_l__bus" depart="469.01" departLane="best">
        <route edges="-103426225#6 -103426225#5 -103426225#2 -103426225#1 -103426225#0 -1461641433#3 -1461641433#2 -1461641433#1 -1461641433#0 -1461641457#1 -1461641457#0 -1461641458#3 -1461641458#2 -1461641458#1 417228502#1 417228502#2 1491172359#0 -1491172360#1 -38393868#2 -38393868#1 -38393868#0 -1491172361#2 824158743#1 1491172369#0" />
    </vehicle>
    <vehicle id="bus_p1_l_5" type="bus_p1_l__bus" depart="491.52" departLane="best" departSpeed="max">
        <route edges="38359857#0 38359857#1 38359857#2 417114094#0 417114094#1 417192337#0 417192337#1 417192337#2 38691389#0 38691389#1 931378515#0 931378515#1 417235733#0 417235733#1 101152389 1479274894 1473695733 1033645489#0 1033645488 1033645485 723312334#0 723312334#1 723312334#3 723312334#4 723312334#5 723312334#7 723312334#8 38691390#0 38691390#3 1028732094#0 -417235727#3 -417235727#2 -417235727#1" />
    </vehicle>
    <vehicle id="bus_p1_l_6" type="bus_p1_l__bus" depart="514.02" departLane="best" departSpeed="max">