<?xml version="1.0" encoding="UTF-8"?>

<!-- generated on 2026-05-22 11:39:46.929850 by Eclipse SUMO randomTrips.py v1_26_0+0000-fa7df22d7f1
<configuration>
    <net-file value="C:\Users\Prime\Desktop\sir2,master rad\my_simulations\2026-05-22-11-15-56\osm.net.xml.gz"/>
    <additional-files value="osm_stops.add.xml,osm_pt.rou.xml"/>
    <route-file value="C:\Users\Prime\Desktop\sir2,master rad\my_simulations\2026-05-22-11-15-56\_tmp_pedestrian_phase7.rou.xml"/>
    <persontrips value="True"/>
    <persontrip.walk-opposite-factor value="0.8"/>
    <prefix value="pedestrian_p7_l_"/>
    <trip-attributes value="modes=&quot;public&quot;"/>
    <vehicle-class value="pedestrian"/>
    <fringe-factor value="2"/>
    <seed value="46"/>
    <remove-loops value="True"/>
    <begin value="3467.0"/>
    <insertion-density value="45.0"/>
    <duarouter-weights.tls-penalty value="20"/>
</configuration>
-->

<routes xmlns:xsi="http://www.w3.org/2001/XMLSchema-instance" xsi:noNamespaceSchemaLocation="http://sumo.dlr.de/xsd/routes_file.xsd">
    <vType id="pedestrian_p7_l__pedestrian" vClass="pedestrian"/>
    <person id="pedestrian_p7_l_0" depart="3467.00" type="pedestrian_p7_l__pedestrian">
        <personTrip from="1420311622#1" to="291929986#2" modes="public"/>
    </person>
    <person id="pedestrian_p7_l_1" depart="3467.68" type="pedestrian_p7_l__pedestrian">
        <personTrip from="1057103252" to="1419952621" modes="public"/>
    </person>
    <person id="pedestrian_p7_l_2" depart="3468.36" type="pedestrian_p7_l__pedestrian">
        <personTrip from="1420311585" to="949113031" modes="public"/>
    </person>
    <person id="pedestrian_p7_l_3" depart="3469.04" type="pedestrian_p7_l__pedestrian">
        <personTrip from="-1071851919#2" to="-1365389583#0" modes="public"/>
    </person>
    <person id="pedestrian_p7_l_4" depart="3469.72" type="pedestrian_p7_l__pedestrian">
        <personTrip from="1104152728#2" to="254747692#1" modes="public"/>
    </person>
    <person id="pedestrian_p7_l_5" depart="3470.39" type="pedestrian_p7_l__pedestrian">
        <personTrip from="264473535#0" to="-38375823#1" modes="public"/>
    </person>
    <person id="pedestrian_p7_l_6" depart="3471.07" type="pedestrian_p7_l__pedestrian">
        <personTrip from="624105521#2" to="1419952639#2" modes="public"/>
    </person>
    <person id="pedestrian_p7_l_7" depart="3471.75" type="pedestrian_p7_l__pedestrian">
        <personTrip from="960082442" to="824134760#0" modes="public"/>
    </person>
    <person id="pedestrian_p7_l_8" depart="3472.43" type="pedestrian_p7_l__pedestrian">
        <personTrip from="-1461641444#1" to="962156531#5" modes="public"/>
    </person>
    <person id="pedestrian_p7_l_9" depart="3473.11" type="pedestrian_p7_l__pedestrian">
        <personTrip from="1419917367#3" to="-694771199" modes="public"/>
    </person>
    <person id="pedestrian_p7_l_10" depart="3473.79" type="pedestrian_p7_l__pedestrian">
        <personTrip from="1419906653#6" to="-1420160206" modes="public"/>
    </person>
    <person id="pedestrian_p7_l_11" depart="3474.47" type="pedestrian_p7_l__pedestrian">
        <personTrip from="1421524923#2" to="1419969591#0" modes="public"/>
    </person>
    <person id="pedestrian_p7_l_12" depart="3475.15" type="pedestrian_p7_l__pedestrian">
        <personTrip from="-1491183952" to="1071851919#1" modes="public"/>
    </person>
    <person id="pedestrian_p7_l_13" depart="3475.83" type="pedestrian_p7_l__pedestrian">
        <personTrip from="1419920939#0" to="1449631255" modes="public"/>
    </person>
    <person id="pedestrian_p7_l_14" depart="3476.50" type="pedestrian_p7_l__pedestrian">
        <personTrip from="1093375246#2" to="-203589978#1" modes="public"/>
    </person>
    <person id="pedestrian_p7_l_15" depart="3477.18" type="pedestrian_p7_l__pedestrian">
        <personTrip from="1243305032#1" to="-1365389583#1" modes="public"/>
    </person>
    <person id="pedestrian_p7_l_16" depart="3477.86" type="pedestrian_p7_l__pedestrian">
        <personTrip from="115611084#1" to="377858000#1" modes="public"/>
    </person>
    <person id="pedestrian_p7_l_17" depart="3478.54" type="pedestrian_p7_l__pedestrian">
        <personTrip from="-944570455#2" to="1104152726#1" modes="public"/>
    </person>
    <person id="pedestrian_p7_l_18" depart="3479.22" type="pedestrian_p7_l__pedestrian">
        <personTrip from="-203589969#0" to="1091830434" modes="public"/>
    </person>
    <person id="pedestrian_p7_l_19" depart="3479.90" type="pedestrian_p7_l__pedestrian">
        <personTrip from="1420311647#1" to="1421493545#1" modes="public"/>
    </person>
    <person id="pedestrian_p7_l_20" depart="3480.58" type="pedestrian_p7_l__pedestrian">
        <personTrip from="1421078874#0" to="-1270699443" modes="public"/>
    </person>
    <person id="pedestrian_p7_l_21" depart="3481.26" type="pedestrian_p7_l__pedestrian">
        <personTrip from="1099672329#1" to="-264337510#8" modes="public"/>
    </person>
    <person id="pedestrian_p7_l_22" depart="3481.93" type="pedestrian_p7_l__pedestrian">
        <personTrip from="1420175858#1" to="1270697030#1" modes="public"/>
    </person>
    <person id="pedestrian_p7_l_23" depart="3482.61" type="pedestrian_p7_l__pedestrian">
        <personTrip from="1421524927#1" to="1420175883" modes="public"/>
    </person>
    <person id="pedestrian_p7_l_24" depart="3483.29" type="pedestrian_p7_l__pedestrian">
        <personTrip from="1420311583#0" to="-960082441#0" modes="public"/>
    </person>
    <person id="pedestrian_p7_l_25" depart="3483.97" type="pedestrian_p7_l__pedestrian">
        <personTrip from="1419969578#0" to="-1270975152#1" modes="public"/>
    </person>
    <person id="pedestrian_p7_l_26" depart="3484.65" type="pedestrian_p7_l__pedestrian">
        <personTrip from="-1473211912" to="291879576" modes="public"/>
    </person>
    <person id="pedestrian_p7_l_27" depart="3485.33" type="pedestrian_p7_l__pedestrian">
        <personTrip from="1421493543#1" to="1004744418#1" modes="public"/>
    </person>
    <person id="pedestrian_p7_l_28" depart="3486.01" type="pedestrian_p7_l__pedestrian">
        <personTrip from="1104152717#1" to="1420311585" modes="public"/>
    </person>
    <person id="pedestrian_p7_l_29" depart="3486.69" type="pedestrian_p7_l__pedestrian">
        <personTrip from="824174714" to="-1069288952#0" modes="public"/>
    </person>
    <person id="pedestrian_p7_l_30" depart="3487.37" type="pedestrian_p7_l__pedestrian">
        <personTrip from="1421078839#1" to="-1096656623#2" modes="public"/>
    </person>
    <person id="pedestrian_p7_l_31" depart="3488.04" type="pedestrian_p7_l__pedestrian">
        <personTrip from="1421524954#1" to="1270697030#1" modes="public"/>
    </person>
    <person id="pedestrian_p7_l_32" depart="3488.72" type="pedestrian_p7_l__pedestrian">
        <personTrip from="-1420160205" to="1285983576#0" modes="public"/>
    </person>
    <person id="pedestrian_p7_l_33" depart="3489.40" type="pedestrian_p7_l__pedestrian">
        <personTrip from="1421078840#1" to="-38375825" modes="public"/>
    </person>
    <person id="pedestrian_p7_l_34" depart="3490.08" type="pedestrian_p7_l__pedestrian">
        <personTrip from="1270700418#3" to="1454361617#2" modes="public"/>
    </person>
    <person id="pedestrian_p7_l_35" depart="3490.76" type="pedestrian_p7_l__pedestrian">
        <personTrip from="249079039#1" to="1421493565#0" modes="public"/>
    </person>
    <person id="pedestrian_p7_l_36" depart="3491.44" type="pedestrian_p7_l__pedestrian">
        <personTrip from="1419917360#1" to="1421493541#1" modes="public"/>
    </person>
    <person id="pedestrian_p7_l_37" depart="3492.12" type="pedestrian_p7_l__pedestrian">
        <personTrip from="-38375823#0" to="1282034518#1" modes="public"/>
    </person>
    <person id="pedestrian_p7_l_38" depart="3492.80" type="pedestrian_p7_l__pedestrian">
        <personTrip from="1104152722#3" to="-38359864#1" modes="public"/>
    </person>
    <person id="pedestrian_p7_l_39" depart="3493.48" type="pedestrian_p7_l__pedestrian">
        <personTrip from="-1096656623#1" to="-1214310714" modes="public"/>
    </person>
    <person id="pedestrian_p7_l_40" depart="3494.15" type="pedestrian_p7_l__pedestrian">
        <personTrip from="962156531#5" to="1282031709" modes="public"/>
    </person>
    <person id="pedestrian_p7_l_41" depart="3494.83" type="pedestrian_p7_l__pedestrian">
        <personTrip from="1104152728#1" to="1421078865#2" modes="public"/>
    </person>
    <person id="pedestrian_p7_l_42" depart="3495.51" type="pedestrian_p7_l__pedestrian">
        <personTrip from="1421493552#0" to="547154357#3" modes="public"/>
    </person>
    <person id="pedestrian_p7_l_43" depart="3496.19" type="pedestrian_p7_l__pedestrian">
        <personTrip from="624105516#1" to="-1243315250#2" modes="public"/>
    </person>
    <person id="pedestrian_p7_l_44" depart="3496.87" type="pedestrian_p7_l__pedestrian">
        <personTrip from="1074642348#6" to="1285983573" modes="public"/>
    </person>
    <person id="pedestrian_p7_l_45" depart="3497.55" type="pedestrian_p7_l__pedestrian">
        <personTrip from="1104152721#1" to="1420175862#3" modes="public"/>
    </person>
    <person id="pedestrian_p7_l_46" depart="3498.23" type="pedestrian_p7_l__pedestrian">
        <personTrip from="1071262614" to="548247853#2" modes="public"/>
    </person>
    <person id="pedestrian_p7_l_47" depart="3498.91" type="pedestrian_p7_l__pedestrian">
        <personTrip from="1110340825#5" to="469673085#0" modes="public"/>
    </person>
    <person id="pedestrian_p7_l_48" depart="3499.59" type="pedestrian_p7_l__pedestrian">
        <personTrip from="671979938#1" to="1421078868#5" modes="public"/>
    </person>
    <person id="pedestrian_p7_l_49" depart="3500.26" type="pedestrian_p7_l__pedestrian">
        <personTrip from="1093375243#1" to="-1243315250#1" modes="public"/>
    </person>
    <person id="pedestrian_p7_l_50" depart="3500.94" type="pedestrian_p7_l__pedestrian">
        <personTrip from="987418409#1" to="687309617" modes="public"/>
    </person>
    <person id="pedestrian_p7_l_51" depart="3501.62" type="pedestrian_p7_l__pedestrian">
        <personTrip from="1419917377#1" to="-1263583826" modes="public"/>
    </person>
    <person id="pedestrian_p7_l_52" depart="3502.30" type="pedestrian_p7_l__pedestrian">
        <personTrip from="1421524941#1" to="1104152721#4" modes="public"/>
    </person>
    <person id="pedestrian_p7_l_53" depart="3502.98" type="pedestrian_p7_l__pedestrian">
        <personTrip from="1419584242#1" to="964879179#5" modes="public"/>
    </person>
    <person id="pedestrian_p7_l_54" depart="3503.66" type="pedestrian_p7_l__pedestrian">
        <personTrip from="624105519#3" to="290182669#1" modes="public"/>
    </person>
    <person id="pedestrian_p7_l_55" depart="3504.34" type="pedestrian_p7_l__pedestrian">
        <personTrip from="1420311640#1" to="1421493553#0" modes="public"/>
    </person>
    <person id="pedestrian_p7_l_56" depart="3505.02" type="pedestrian_p7_l__pedestrian">
        <personTrip from="1421078855#0" to="1421524921#2" modes="public"/>
    </person>
    <person id="pedestrian_p7_l_57" depart="3505.69" type="pedestrian_p7_l__pedestrian">
        <personTrip from="1421493543#5" to="-1473211912" modes="public"/>
    </person>
    <person id="pedestrian_p7_l_58" depart="3506.37" type="pedestrian_p7_l__pedestrian">
        <personTrip from="1066890896#1" to="1420160203" modes="public"/>
    </person>
    <person id="pedestrian_p7_l_59" depart="3507.05" type="pedestrian_p7_l__pedestrian">
        <personTrip from="1420311642#1" to="1421524923#2" modes="public"/>
    </person>
    <person id="pedestrian_p7_l_60" depart="3507.73" type="pedestrian_p7_l__pedestrian">
        <personTrip from="1022114286" to="1243309639#1" modes="public"/>
    </person>
    <person id="pedestrian_p7_l_61" depart="3508.41" type="pedestrian_p7_l__pedestrian">
        <personTrip from="1074642356" to="1420951654#2" modes="public"/>
    </person>
    <person id="pedestrian_p7_l_62" depart="3509.09" type="pedestrian_p7_l__pedestrian">
        <personTrip from="1104042255#0" to="-290406161#0" modes="public"/>
    </person>
    <person id="pedestrian_p7_l_63" depart="3509.77" type="pedestrian_p7_l__pedestrian">
        <personTrip from="1104152703#0" to="987418409#1" modes="public"/>
    </person>
    <person id="pedestrian_p7_l_64" depart="3510.45" type="pedestrian_p7_l__pedestrian">
        <personTrip from="1420311628#1" to="292793285" modes="public"/>
    </person>
    <person id="pedestrian_p7_l_65" depart="3511.13" type="pedestrian_p7_l__pedestrian">
        <personTrip from="1419917378#0" to="1419917371#0" modes="public"/>
    </person>
    <person id="pedestrian_p7_l_66" depart="3511.80" type="pedestrian_p7_l__pedestrian">
        <personTrip from="1093328721" to="1074642356" modes="public"/>
    </person>
    <person id="pedestrian_p7_l_67" depart="3512.48" type="pedestrian_p7_l__pedestrian">
        <personTrip from="624091856#1" to="1419917378#0" modes="public"/>
    </person>
    <person id="pedestrian_p7_l_68" depart="3513.16" type="pedestrian_p7_l__pedestrian">
        <personTrip from="1419952635#1" to="-988510423#1" modes="public"/>
    </person>
    <person id="pedestrian_p7_l_69" depart="3513.84" type="pedestrian_p7_l__pedestrian">
        <personTrip from="1421493535#3" to="1491172369#1" modes="public"/>
    </person>
    <person id="pedestrian_p7_l_70" depart="3514.52" type="pedestrian_p7_l__pedestrian">
        <personTrip from="-253106105#2" to="1421078885#3" modes="public"/>
    </person>
    <person id="pedestrian_p7_l_71" depart="3515.20" type="pedestrian_p7_l__pedestrian">
        <personTrip from="1454361617#1" to="-114532723#0" modes="public"/>
    </person>
    <person id="pedestrian_p7_l_72" depart="3515.88" type="pedestrian_p7_l__pedestrian">
        <personTrip from="170772575" to="264473535#1" modes="public"/>
    </person>
    <person id="pedestrian_p7_l_73" depart="3516.56" type="pedestrian_p7_l__pedestrian">
        <personTrip from="-1263583826" to="1420951643#1" modes="public"/>
    </person>
    <person id="pedestrian_p7_l_74" depart="3517.24" type="pedestrian_p7_l__pedestrian">
        <personTrip from="-1491183946#0" to="1419952624" modes="public"/>
    </person>
    <person id="pedestrian_p7_l_75" depart="3517.91" type="pedestrian_p7_l__pedestrian">
        <personTrip from="-264337510#8" to="1420311585" modes="public"/>
    </person>
    <person id="pedestrian_p7_l_76" depart="3518.59" type="pedestrian_p7_l__pedestrian">
        <personTrip from="1093375251" to="1419917379#7" modes="public"/>
    </person>
    <person id="pedestrian_p7_l_77" depart="3519.27" type="pedestrian_p7_l__pedestrian">
        <personTrip from="1420909166#1" to="1460547076" modes="public"/>
    </person>
    <person id="pedestrian_p7_l_78" depart="3519.95" type="pedestrian_p7_l__pedestrian">
        <personTrip from="1419906653#1" to="-630459460" modes="public"/>
    </person>
    <person id="pedestrian_p7_l_79" depart="3520.63" type="pedestrian_p7_l__pedestrian">
        <personTrip from="114150961#1" to="1419584227#2" modes="public"/>
    </person>
    <person id="pedestrian_p7_l_80" depart="3521.31" type="pedestrian_p7_l__pedestrian">
        <personTrip from="1156213652#1" to="1030215625#2" modes="public"/>
    </person>
    <person id="pedestrian_p7_l_81" depart="3521.99" type="pedestrian_p7_l__pedestrian">
        <personTrip from="964879179#8" to="1254647366" modes="public"/>
    </person>
    <person id="pedestrian_p7_l_82" depart="3522.67" type="pedestrian_p7_l__pedestrian">
        <personTrip from="-1004744418#1" to="1089752636#0" modes="public"/>
    </person>
    <person id="pedestrian_p7_l_83" depart="3523.35" type="pedestrian_p7_l__pedestrian">
        <personTrip from="1421524952#1" to="1421493554#9" modes="public"/>
    </person>
    <person id="pedestrian_p7_l_84" depart="3524.02" type="pedestrian_p7_l__pedestrian">
        <personTrip from="1419917361#1" to="-115561056" modes="public"/>
    </person>
    <person id="pedestrian_p7_l_85" depart="3524.70" type="pedestrian_p7_l__pedestrian">
        <personTrip from="1156138232#0" to="624105521#0" modes="public"/>
    </person>
    <person id="pedestrian_p7_l_86" depart="3525.38" type="pedestrian_p7_l__pedestrian">
        <personTrip from="624105516#1" to="264337510#3" modes="public"/>
    </person>
    <person id="pedestrian_p7_l_87" depart="3526.06" type="pedestrian_p7_l__pedestrian">
        <personTrip from="-453855654" to="38359852#1" modes="public"/>
    </person>
    <person id="pedestrian_p7_l_88" depart="3526.74" type="pedestrian_p7_l__pedestrian">
        <personTrip from="963960414" to="1421524954#1" modes="public"/>
    </person>
    <person id="pedestrian_p7_l_89" depart="3527.42" type="pedestrian_p7_l__pedestrian">
        <personTrip from="1421524953#0" to="-290406164#0" modes="public"/>
    </person>
    <person id="pedestrian_p7_l_90" depart="3528.10" type="pedestrian_p7_l__pedestrian">
        <personTrip from="1069288956#0" to="1419917370#4" modes="public"/>
    </person>
    <person id="pedestrian_p7_l_91" depart="3528.78" type="pedestrian_p7_l__pedestrian">
        <personTrip from="-958527525#0" to="264473533#1" modes="public"/>
    </person>
    <person id="pedestrian_p7_l_92" depart="3529.46" type="pedestrian_p7_l__pedestrian">
        <personTrip from="1282031712#0" to="1421078841" modes="public"/>
    </person>
    <person id="pedestrian_p7_l_93" depart="3530.13" type="pedestrian_p7_l__pedestrian">
        <personTrip from="1282034520#2" to="962156528#1" modes="public"/>
    </person>
    <person id="pedestrian_p7_l_94" depart="3530.81" type="pedestrian_p7_l__pedestrian">
        <personTrip from="1104180857" to="292793282#0" modes="public"/>
    </person>
    <person id="pedestrian_p7_l_95" depart="3531.49" type="pedestrian_p7_l__pedestrian">
        <personTrip from="292793288" to="1420951664#2" modes="public"/>
    </person>
    <person id="pedestrian_p7_l_96" depart="3532.17" type="pedestrian_p7_l__pedestrian">
        <personTrip from="-1270699443" to="824174715" modes="public"/>
    </person>
    <person id="pedestrian_p7_l_97" depart="3532.85" type="pedestrian_p7_l__pedestrian">
        <personTrip from="-694603074#1" to="-1461641445#0" modes="public"/>
    </person>
    <person id="pedestrian_p7_l_98" depart="3533.53" type="pedestrian_p7_l__pedestrian">
        <personTrip from="-1071851919#2" to="293236498#1" modes="public"/>
    </person>
    <person id="pedestrian_p7_l_99" depart="3534.21" type="pedestrian_p7_l__pedestrian">
        <personTrip from="630461674#1" to="1243315255#1" modes="public"/>
    </person>
    <person id="pedestrian_p7_l_100" depart="3534.89" type="pedestrian_p7_l__pedestrian">
        <personTrip from="1243315246#0" to="1421493565#1" modes="public"/>
    </person>
    <person id="pedestrian_p7_l_101" depart="3535.56" type="pedestrian_p7_l__pedestrian">
        <personTrip from="1421493553#0" to="1104152710" modes="public"/>
    </person>
    <person id="pedestrian_p7_l_102" depart="3536.24" type="pedestrian_p7_l__pedestrian">
        <personTrip from="-1157358645" to="-377857999#1" modes="public"/>
    </person>
    <person id="pedestrian_p7_l_103" depart="3536.92" type="pedestrian_p7_l__pedestrian">
        <personTrip from="1093375243#1" to="-1066053875#0" modes="public"/>
    </person>
    <person id="pedestrian_p7_l_104" depart="3537.60" type="pedestrian_p7_l__pedestrian">
        <personTrip from="1421493554#5" to="1282034518#1" modes="public"/>
    </person>
    <person id="pedestrian_p7_l_105" depart="3538.28" type="pedestrian_p7_l__pedestrian">
        <personTrip from="1419952638#1" to="1093097873" modes="public"/>
    </person>
    <person id="pedestrian_p7_l_106" depart="3538.96" type="pedestrian_p7_l__pedestrian">
        <personTrip from="1270697028" to="1421493536#1" modes="public"/>
    </person>
    <person id="pedestrian_p7_l_107" depart="3539.64" type="pedestrian_p7_l__pedestrian">
        <personTrip from="377858000#0" to="264337510#8" modes="public"/>
    </person>
    <person id="pedestrian_p7_l_108" depart="3540.32" type="pedestrian_p7_l__pedestrian">
        <personTrip from="1419952611#2" to="266143622#0" modes="public"/>
    </person>
    <person id="pedestrian_p7_l_109" depart="3541.00" type="pedestrian_p7_l__pedestrian">
        <personTrip from="1104152710" to="1420951651" modes="public"/>
    </person>
    <person id="pedestrian_p7_l_110" depart="3541.67" type="pedestrian_p7_l__pedestrian">
        <personTrip from="1104042255#1" to="469673085#1" modes="public"/>
    </person>
    <person id="pedestrian_p7_l_111" depart="3542.35" type="pedestrian_p7_l__pedestrian">
        <personTrip from="1282031712#0" to="-1104044003" modes="public"/>
    </person>
    <person id="pedestrian_p7_l_112" depart="3543.03" type="pedestrian_p7_l__pedestrian">
        <personTrip from="1421524952#1" to="-687309616" modes="public"/>
    </person>
    <person id="pedestrian_p7_l_113" depart="3543.71" type="pedestrian_p7_l__pedestrian">
        <personTrip from="266143635#2" to="264337510#4" modes="public"/>
    </person>
    <person id="pedestrian_p7_l_114" depart="3544.39" type="pedestrian_p7_l__pedestrian">
        <personTrip from="348789338" to="-1243315250#0" modes="public"/>
    </person>
    <person id="pedestrian_p7_l_115" depart="3545.07" type="pedestrian_p7_l__pedestrian">
        <personTrip from="-108040331#1" to="1419723745#1" modes="public"/>
    </person>
    <person id="pedestrian_p7_l_116" depart="3545.75" type="pedestrian_p7_l__pedestrian">
        <personTrip from="1420311629#0" to="-1104044000#0" modes="public"/>
    </person>
    <person id="pedestrian_p7_l_117" depart="3546.43" type="pedestrian_p7_l__pedestrian">
        <personTrip from="1421078875#1" to="1270697026#3" modes="public"/>
    </person>
    <person id="pedestrian_p7_l_118" depart="3547.11" type="pedestrian_p7_l__pedestrian">
        <personTrip from="-293236498#1" to="1420951662#0" modes="public"/>
    </person>
    <person id="pedestrian_p7_l_119" depart="3547.78" type="pedestrian_p7_l__pedestrian">
        <personTrip from="1419584236#1" to="1263583831" modes="public"/>
    </person>
    <person id="pedestrian_p7_l_120" depart="3548.46" type="pedestrian_p7_l__pedestrian">
        <personTrip from="958484852" to="1420311587#1" modes="public"/>
    </person>
    <person id="pedestrian_p7_l_121" depart="3549.14" type="pedestrian_p7_l__pedestrian">
        <personTrip from="1263583823" to="1419969590#1" modes="public"/>
    </person>
    <person id="pedestrian_p7_l_122" depart="3549.82" type="pedestrian_p7_l__pedestrian">
        <personTrip from="1421078882#3" to="958484854#0" modes="public"/>
    </person>
    <person id="pedestrian_p7_l_123" depart="3550.50" type="pedestrian_p7_l__pedestrian">
        <personTrip from="1421078868#6" to="-203589978#2" modes="public"/>
    </person>
    <person id="pedestrian_p7_l_124" depart="3551.18" type="pedestrian_p7_l__pedestrian">
        <personTrip from="1461641449#0" to="1419952635#4" modes="public"/>
    </person>
    <person id="pedestrian_p7_l_125" depart="3551.86" type="pedestrian_p7_l__pedestrian">
        <personTrip from="-958527517" to="1421493539#1" modes="public"/>
    </person>
    <person id="pedestrian_p7_l_126" depart="3552.54" type="pedestrian_p7_l__pedestrian">
        <personTrip from="366463596#1" to="1421493568#1" modes="public"/>
    </person>
    <person id="pedestrian_p7_l_127" depart="3553.22" type="pedestrian_p7_l__pedestrian">
        <personTrip from="958484854#0" to="-694766183#0" modes="public"/>
    </person>
    <person id="pedestrian_p7_l_128" depart="3553.89" type="pedestrian_p7_l__pedestrian">
        <personTrip from="1243309638" to="1419969582#0" modes="public"/>
    </person>
    <person id="pedestrian_p7_l_129" depart="3554.57" type="pedestrian_p7_l__pedestrian">
        <personTrip from="264473519#0" to="1421524940#1" modes="public"/>
    </person>
    <person id="pedestrian_p7_l_130" depart="3555.25" type="pedestrian_p7_l__pedestrian">
        <personTrip from="1419952610#0" to="1024481473#0" modes="public"/>
    </person>
    <person id="pedestrian_p7_l_131" depart="3555.93" type="pedestrian_p7_l__pedestrian">
        <personTrip from="1419917380#3" to="694766180" modes="public"/>
    </person>
    <person id="pedestrian_p7_l_132" depart="3556.61" type="pedestrian_p7_l__pedestrian">
        <personTrip from="293418340" to="1089752636#2" modes="public"/>
    </person>
    <person id="pedestrian_p7_l_133" depart="3557.29" type="pedestrian_p7_l__pedestrian">
        <personTrip from="624091858#2" to="1420175869#0" modes="public"/>
    </person>
    <person id="pedestrian_p7_l_134" depart="3557.97" type="pedestrian_p7_l__pedestrian">
        <personTrip from="1096264170#1" to="1472214912" modes="public"/>
    </person>
    <person id="pedestrian_p7_l_135" depart="3558.65" type="pedestrian_p7_l__pedestrian">
        <personTrip from="1420175862#1" to="-1491172368#0" modes="public"/>
    </person>
    <person id="pedestrian_p7_l_136" depart="3559.32" type="pedestrian_p7_l__pedestrian">
        <personTrip from="1419906606#1" to="1420311660" modes="public"/>
    </person>
    <person id="pedestrian_p7_l_137" depart="3560.00" type="pedestrian_p7_l__pedestrian">
        <personTrip from="1419201813#1" to="1420175890#1" modes="public"/>
    </person>
    <person id="pedestrian_p7_l_138" depart="3560.68" type="pedestrian_p7_l__pedestrian">
        <personTrip from="1421524956#1" to="624105517#4" modes="public"/>
    </person>
    <person id="pedestrian_p7_l_139" depart="3561.36" type="pedestrian_p7_l__pedestrian">
        <personTrip from="1420175867" to="-417309446#2" modes="public"/>
    </person>
    <person id="pedestrian_p7_l_140" depart="3562.04" type="pedestrian_p7_l__pedestrian">
        <personTrip from="962156531#4" to="1491183966#0" modes="public"/>
    </person>
    <person id="pedestrian_p7_l_141" depart="3562.72" type="pedestrian_p7_l__pedestrian">
        <personTrip from="1419917364#0" to="1419952614#2" modes="public"/>
    </person>
    <person id="pedestrian_p7_l_142" depart="3563.40" type="pedestrian_p7_l__pedestrian">
        <personTrip from="958527531" to="-1243315246#0" modes="public"/>
    </person>
    <person id="pedestrian_p7_l_143" depart="3564.08" type="pedestrian_p7_l__pedestrian">
        <personTrip from="1420951664#1" to="1419920938#2" modes="public"/>
    </person>
    <person id="pedestrian_p7_l_144" depart="3564.76" type="pedestrian_p7_l__pedestrian">
        <personTrip from="971953887" to="-962156528#1" modes="public"/>
    </person>
    <person id="pedestrian_p7_l_145" depart="3565.43" type="pedestrian_p7_l__pedestrian">
        <personTrip from="1243315251" to="290407988#1" modes="public"/>
    </person>
    <person id="pedestrian_p7_l_146" depart="3566.11" type="pedestrian_p7_l__pedestrian">
        <personTrip from="1104067887" to="1419906650#3" modes="public"/>
    </person>
    <person id="pedestrian_p7_l_147" depart="3566.79" type="pedestrian_p7_l__pedestrian">
        <personTrip from="-1491183952" to="959741635" modes="public"/>
    </person>
    <person id="pedestrian_p7_l_148" depart="3567.47" type="pedestrian_p7_l__pedestrian">
        <personTrip from="1419917379#14" to="1188652710#5" modes="public"/>
    </person>
    <person id="pedestrian_p7_l_149" depart="3568.15" type="pedestrian_p7_l__pedestrian">
        <personTrip from="1421493550#1" to="1420311582#1" modes="public"/>
    </person>
    <person id="pedestrian_p7_l_150" depart="3568.83" type="pedestrian_p7_l__pedestrian">
        <personTrip from="1096264170#0" to="971953887" modes="public"/>
    </person>
    <person id="pedestrian_p7_l_151" depart="3569.51" type="pedestrian_p7_l__pedestrian">
        <personTrip from="1421078868#1" to="1188652710#4" modes="public"/>
    </person>
    <person id="pedestrian_p7_l_152" depart="3570.19" type="pedestrian_p7_l__pedestrian">
        <personTrip from="1030215632" to="290407988#0" modes="public"/>
    </person>
    <person id="pedestrian_p7_l_153" depart="3570.87" type="pedestrian_p7_l__pedestrian">
        <personTrip from="1419952609#2" to="1089752626#1" modes="public"/>
    </person>
    <person id="pedestrian_p7_l_154" depart="3571.54" type="pedestrian_p7_l__pedestrian">
        <personTrip from="-290406161#1" to="290403307#0" modes="public"/>
    </person>
    <person id="pedestrian_p7_l_155" depart="3572.22" type="pedestrian_p7_l__pedestrian">
        <personTrip from="-410529595#1" to="1421493543#8" modes="public"/>
    </person>
    <person id="pedestrian_p7_l_156" depart="3572.90" type="pedestrian_p7_l__pedestrian">
        <personTrip from="1419917373#1" to="1029697144" modes="public"/>
    </person>
    <person id="pedestrian_p7_l_157" depart="3573.58" type="pedestrian_p7_l__pedestrian">
        <personTrip from="1419917379#8" to="-1071851919#2" modes="public"/>
    </person>
    <person id="pedestrian_p7_l_158" depart="3574.26" type="pedestrian_p7_l__pedestrian">
        <personTrip from="1419906654#1" to="-1089752626#0" modes="public"/>
    </person>
    <person id="pedestrian_p7_l_159" depart="3574.94" type="pedestrian_p7_l__pedestrian">
        <personTrip from="1414598754#1" to="-1071262615#1" modes="public"/>
    </person>
    <person id="pedestrian_p7_l_160" depart="3575.62" type="pedestrian_p7_l__pedestrian">
        <personTrip from="253106102#2" to="1421524952#1" modes="public"/>
    </person>
    <person id="pedestrian_p7_l_161" depart="3576.30" type="pedestrian_p7_l__pedestrian">
        <personTrip from="-264337510#11" to="958940839" modes="public"/>
    </person>
    <person id="pedestrian_p7_l_162" depart="3576.98" type="pedestrian_p7_l__pedestrian">
        <personTrip from="1419917360#0" to="1420311635#0" modes="public"/>
    </person>